version 3
run General-0-20241027-16:18:19-11396
attr configname General
attr datetime 20241027-16:18:19
attr datetimef 20241027-161819
attr experiment General
attr inifile omnetpp.ini
attr iterationvars ""
attr iterationvarsd ""
attr iterationvarsf ""
attr measurement ""
attr network Delegate_selection_on_HotStuff_2
attr processid 11396
attr repetition 0
attr replication #0
attr resultdir results
attr runnumber 0
attr seedset 0
config image-path ../../inet4.4/images
config network Delegate_selection_on_HotStuff_2
config sim-time-limit 1000s

par Delegate_selection_on_HotStuff_2.Creator[0].out[0].channel typename "\"delegate_selection_on_hotstuff_2.Delegate_selection_on_HotStuff_2.lteup\""
par Delegate_selection_on_HotStuff_2.Creator[0].out[0].channel disabled false
attr mutable ""
par Delegate_selection_on_HotStuff_2.Creator[0].out[0].channel delay 0.3s
attr mutable ""
attr unit s
par Delegate_selection_on_HotStuff_2.Creator[0].out[0].channel datarate 5e+06bps
attr mutable ""
attr unit bps
par Delegate_selection_on_HotStuff_2.Creator[0].out[0].channel ber 0
attr mutable ""
par Delegate_selection_on_HotStuff_2.Creator[0].out[0].channel per 0
attr mutable ""
par Delegate_selection_on_HotStuff_2.Creator[0].out[0].channel displayAsTooltip false
par Delegate_selection_on_HotStuff_2.Creator[0].out[0].channel thruputDisplayFormat "\"\""
par Delegate_selection_on_HotStuff_2.Concentrator[0].out[0].channel typename "\"delegate_selection_on_hotstuff_2.Delegate_selection_on_HotStuff_2.ltedown\""
par Delegate_selection_on_HotStuff_2.Concentrator[0].out[0].channel disabled false
attr mutable ""
par Delegate_selection_on_HotStuff_2.Concentrator[0].out[0].channel delay 0.3s
attr mutable ""
attr unit s
par Delegate_selection_on_HotStuff_2.Concentrator[0].out[0].channel datarate 5e+06bps
attr mutable ""
attr unit bps
par Delegate_selection_on_HotStuff_2.Concentrator[0].out[0].channel ber 0
attr mutable ""
par Delegate_selection_on_HotStuff_2.Concentrator[0].out[0].channel per 0
attr mutable ""
par Delegate_selection_on_HotStuff_2.Concentrator[0].out[0].channel displayAsTooltip false
par Delegate_selection_on_HotStuff_2.Concentrator[0].out[0].channel thruputDisplayFormat "\"\""
par Delegate_selection_on_HotStuff_2.Creator[1].out[0].channel typename "\"delegate_selection_on_hotstuff_2.Delegate_selection_on_HotStuff_2.lteup\""
par Delegate_selection_on_HotStuff_2.Creator[1].out[0].channel disabled false
attr mutable ""
par Delegate_selection_on_HotStuff_2.Creator[1].out[0].channel delay 0.3s
attr mutable ""
attr unit s
par Delegate_selection_on_HotStuff_2.Creator[1].out[0].channel datarate 5e+06bps
attr mutable ""
attr unit bps
par Delegate_selection_on_HotStuff_2.Creator[1].out[0].channel ber 0
attr mutable ""
par Delegate_selection_on_HotStuff_2.Creator[1].out[0].channel per 0
attr mutable ""
par Delegate_selection_on_HotStuff_2.Creator[1].out[0].channel displayAsTooltip false
par Delegate_selection_on_HotStuff_2.Creator[1].out[0].channel thruputDisplayFormat "\"\""
par Delegate_selection_on_HotStuff_2.Concentrator[0].out[1].channel typename "\"delegate_selection_on_hotstuff_2.Delegate_selection_on_HotStuff_2.ltedown\""
par Delegate_selection_on_HotStuff_2.Concentrator[0].out[1].channel disabled false
attr mutable ""
par Delegate_selection_on_HotStuff_2.Concentrator[0].out[1].channel delay 0.3s
attr mutable ""
attr unit s
par Delegate_selection_on_HotStuff_2.Concentrator[0].out[1].channel datarate 5e+06bps
attr mutable ""
attr unit bps
par Delegate_selection_on_HotStuff_2.Concentrator[0].out[1].channel ber 0
attr mutable ""
par Delegate_selection_on_HotStuff_2.Concentrator[0].out[1].channel per 0
attr mutable ""
par Delegate_selection_on_HotStuff_2.Concentrator[0].out[1].channel displayAsTooltip false
par Delegate_selection_on_HotStuff_2.Concentrator[0].out[1].channel thruputDisplayFormat "\"\""
par Delegate_selection_on_HotStuff_2.Creator[2].out[0].channel typename "\"delegate_selection_on_hotstuff_2.Delegate_selection_on_HotStuff_2.lteup\""
par Delegate_selection_on_HotStuff_2.Creator[2].out[0].channel disabled false
attr mutable ""
par Delegate_selection_on_HotStuff_2.Creator[2].out[0].channel delay 0.3s
attr mutable ""
attr unit s
par Delegate_selection_on_HotStuff_2.Creator[2].out[0].channel datarate 5e+06bps
attr mutable ""
attr unit bps
par Delegate_selection_on_HotStuff_2.Creator[2].out[0].channel ber 0
attr mutable ""
par Delegate_selection_on_HotStuff_2.Creator[2].out[0].channel per 0
attr mutable ""
par Delegate_selection_on_HotStuff_2.Creator[2].out[0].channel displayAsTooltip false
par Delegate_selection_on_HotStuff_2.Creator[2].out[0].channel thruputDisplayFormat "\"\""
par Delegate_selection_on_HotStuff_2.Concentrator[0].out[2].channel typename "\"delegate_selection_on_hotstuff_2.Delegate_selection_on_HotStuff_2.ltedown\""
par Delegate_selection_on_HotStuff_2.Concentrator[0].out[2].channel disabled false
attr mutable ""
par Delegate_selection_on_HotStuff_2.Concentrator[0].out[2].channel delay 0.3s
attr mutable ""
attr unit s
par Delegate_selection_on_HotStuff_2.Concentrator[0].out[2].channel datarate 5e+06bps
attr mutable ""
attr unit bps
par Delegate_selection_on_HotStuff_2.Concentrator[0].out[2].channel ber 0
attr mutable ""
par Delegate_selection_on_HotStuff_2.Concentrator[0].out[2].channel per 0
attr mutable ""
par Delegate_selection_on_HotStuff_2.Concentrator[0].out[2].channel displayAsTooltip false
par Delegate_selection_on_HotStuff_2.Concentrator[0].out[2].channel thruputDisplayFormat "\"\""
par Delegate_selection_on_HotStuff_2.Creator[3].out[0].channel typename "\"delegate_selection_on_hotstuff_2.Delegate_selection_on_HotStuff_2.lteup\""
par Delegate_selection_on_HotStuff_2.Creator[3].out[0].channel disabled false
attr mutable ""
par Delegate_selection_on_HotStuff_2.Creator[3].out[0].channel delay 0.3s
attr mutable ""
attr unit s
par Delegate_selection_on_HotStuff_2.Creator[3].out[0].channel datarate 5e+06bps
attr mutable ""
attr unit bps
par Delegate_selection_on_HotStuff_2.Creator[3].out[0].channel ber 0
attr mutable ""
par Delegate_selection_on_HotStuff_2.Creator[3].out[0].channel per 0
attr mutable ""
par Delegate_selection_on_HotStuff_2.Creator[3].out[0].channel displayAsTooltip false
par Delegate_selection_on_HotStuff_2.Creator[3].out[0].channel thruputDisplayFormat "\"\""
par Delegate_selection_on_HotStuff_2.Concentrator[0].out[3].channel typename "\"delegate_selection_on_hotstuff_2.Delegate_selection_on_HotStuff_2.ltedown\""
par Delegate_selection_on_HotStuff_2.Concentrator[0].out[3].channel disabled false
attr mutable ""
par Delegate_selection_on_HotStuff_2.Concentrator[0].out[3].channel delay 0.3s
attr mutable ""
attr unit s
par Delegate_selection_on_HotStuff_2.Concentrator[0].out[3].channel datarate 5e+06bps
attr mutable ""
attr unit bps
par Delegate_selection_on_HotStuff_2.Concentrator[0].out[3].channel ber 0
attr mutable ""
par Delegate_selection_on_HotStuff_2.Concentrator[0].out[3].channel per 0
attr mutable ""
par Delegate_selection_on_HotStuff_2.Concentrator[0].out[3].channel displayAsTooltip false
par Delegate_selection_on_HotStuff_2.Concentrator[0].out[3].channel thruputDisplayFormat "\"\""
par Delegate_selection_on_HotStuff_2.Creator[4].out[0].channel typename "\"delegate_selection_on_hotstuff_2.Delegate_selection_on_HotStuff_2.lteup\""
par Delegate_selection_on_HotStuff_2.Creator[4].out[0].channel disabled false
attr mutable ""
par Delegate_selection_on_HotStuff_2.Creator[4].out[0].channel delay 0.3s
attr mutable ""
attr unit s
par Delegate_selection_on_HotStuff_2.Creator[4].out[0].channel datarate 5e+06bps
attr mutable ""
attr unit bps
par Delegate_selection_on_HotStuff_2.Creator[4].out[0].channel ber 0
attr mutable ""
par Delegate_selection_on_HotStuff_2.Creator[4].out[0].channel per 0
attr mutable ""
par Delegate_selection_on_HotStuff_2.Creator[4].out[0].channel displayAsTooltip false
par Delegate_selection_on_HotStuff_2.Creator[4].out[0].channel thruputDisplayFormat "\"\""
par Delegate_selection_on_HotStuff_2.Concentrator[0].out[4].channel typename "\"delegate_selection_on_hotstuff_2.Delegate_selection_on_HotStuff_2.ltedown\""
par Delegate_selection_on_HotStuff_2.Concentrator[0].out[4].channel disabled false
attr mutable ""
par Delegate_selection_on_HotStuff_2.Concentrator[0].out[4].channel delay 0.3s
attr mutable ""
attr unit s
par Delegate_selection_on_HotStuff_2.Concentrator[0].out[4].channel datarate 5e+06bps
attr mutable ""
attr unit bps
par Delegate_selection_on_HotStuff_2.Concentrator[0].out[4].channel ber 0
attr mutable ""
par Delegate_selection_on_HotStuff_2.Concentrator[0].out[4].channel per 0
attr mutable ""
par Delegate_selection_on_HotStuff_2.Concentrator[0].out[4].channel displayAsTooltip false
par Delegate_selection_on_HotStuff_2.Concentrator[0].out[4].channel thruputDisplayFormat "\"\""
par Delegate_selection_on_HotStuff_2.Creator[5].out[0].channel typename "\"delegate_selection_on_hotstuff_2.Delegate_selection_on_HotStuff_2.lteup\""
par Delegate_selection_on_HotStuff_2.Creator[5].out[0].channel disabled false
attr mutable ""
par Delegate_selection_on_HotStuff_2.Creator[5].out[0].channel delay 0.3s
attr mutable ""
attr unit s
par Delegate_selection_on_HotStuff_2.Creator[5].out[0].channel datarate 5e+06bps
attr mutable ""
attr unit bps
par Delegate_selection_on_HotStuff_2.Creator[5].out[0].channel ber 0
attr mutable ""
par Delegate_selection_on_HotStuff_2.Creator[5].out[0].channel per 0
attr mutable ""
par Delegate_selection_on_HotStuff_2.Creator[5].out[0].channel displayAsTooltip false
par Delegate_selection_on_HotStuff_2.Creator[5].out[0].channel thruputDisplayFormat "\"\""
par Delegate_selection_on_HotStuff_2.Concentrator[0].out[5].channel typename "\"delegate_selection_on_hotstuff_2.Delegate_selection_on_HotStuff_2.ltedown\""
par Delegate_selection_on_HotStuff_2.Concentrator[0].out[5].channel disabled false
attr mutable ""
par Delegate_selection_on_HotStuff_2.Concentrator[0].out[5].channel delay 0.3s
attr mutable ""
attr unit s
par Delegate_selection_on_HotStuff_2.Concentrator[0].out[5].channel datarate 5e+06bps
attr mutable ""
attr unit bps
par Delegate_selection_on_HotStuff_2.Concentrator[0].out[5].channel ber 0
attr mutable ""
par Delegate_selection_on_HotStuff_2.Concentrator[0].out[5].channel per 0
attr mutable ""
par Delegate_selection_on_HotStuff_2.Concentrator[0].out[5].channel displayAsTooltip false
par Delegate_selection_on_HotStuff_2.Concentrator[0].out[5].channel thruputDisplayFormat "\"\""
par Delegate_selection_on_HotStuff_2.Creator[6].out[0].channel typename "\"delegate_selection_on_hotstuff_2.Delegate_selection_on_HotStuff_2.lteup\""
par Delegate_selection_on_HotStuff_2.Creator[6].out[0].channel disabled false
attr mutable ""
par Delegate_selection_on_HotStuff_2.Creator[6].out[0].channel delay 0.3s
attr mutable ""
attr unit s
par Delegate_selection_on_HotStuff_2.Creator[6].out[0].channel datarate 5e+06bps
attr mutable ""
attr unit bps
par Delegate_selection_on_HotStuff_2.Creator[6].out[0].channel ber 0
attr mutable ""
par Delegate_selection_on_HotStuff_2.Creator[6].out[0].channel per 0
attr mutable ""
par Delegate_selection_on_HotStuff_2.Creator[6].out[0].channel displayAsTooltip false
par Delegate_selection_on_HotStuff_2.Creator[6].out[0].channel thruputDisplayFormat "\"\""
par Delegate_selection_on_HotStuff_2.Concentrator[0].out[6].channel typename "\"delegate_selection_on_hotstuff_2.Delegate_selection_on_HotStuff_2.ltedown\""
par Delegate_selection_on_HotStuff_2.Concentrator[0].out[6].channel disabled false
attr mutable ""
par Delegate_selection_on_HotStuff_2.Concentrator[0].out[6].channel delay 0.3s
attr mutable ""
attr unit s
par Delegate_selection_on_HotStuff_2.Concentrator[0].out[6].channel datarate 5e+06bps
attr mutable ""
attr unit bps
par Delegate_selection_on_HotStuff_2.Concentrator[0].out[6].channel ber 0
attr mutable ""
par Delegate_selection_on_HotStuff_2.Concentrator[0].out[6].channel per 0
attr mutable ""
par Delegate_selection_on_HotStuff_2.Concentrator[0].out[6].channel displayAsTooltip false
par Delegate_selection_on_HotStuff_2.Concentrator[0].out[6].channel thruputDisplayFormat "\"\""
par Delegate_selection_on_HotStuff_2.Creator[7].out[0].channel typename "\"delegate_selection_on_hotstuff_2.Delegate_selection_on_HotStuff_2.lteup\""
par Delegate_selection_on_HotStuff_2.Creator[7].out[0].channel disabled false
attr mutable ""
par Delegate_selection_on_HotStuff_2.Creator[7].out[0].channel delay 0.3s
attr mutable ""
attr unit s
par Delegate_selection_on_HotStuff_2.Creator[7].out[0].channel datarate 5e+06bps
attr mutable ""
attr unit bps
par Delegate_selection_on_HotStuff_2.Creator[7].out[0].channel ber 0
attr mutable ""
par Delegate_selection_on_HotStuff_2.Creator[7].out[0].channel per 0
attr mutable ""
par Delegate_selection_on_HotStuff_2.Creator[7].out[0].channel displayAsTooltip false
par Delegate_selection_on_HotStuff_2.Creator[7].out[0].channel thruputDisplayFormat "\"\""
par Delegate_selection_on_HotStuff_2.Concentrator[0].out[7].channel typename "\"delegate_selection_on_hotstuff_2.Delegate_selection_on_HotStuff_2.ltedown\""
par Delegate_selection_on_HotStuff_2.Concentrator[0].out[7].channel disabled false
attr mutable ""
par Delegate_selection_on_HotStuff_2.Concentrator[0].out[7].channel delay 0.3s
attr mutable ""
attr unit s
par Delegate_selection_on_HotStuff_2.Concentrator[0].out[7].channel datarate 5e+06bps
attr mutable ""
attr unit bps
par Delegate_selection_on_HotStuff_2.Concentrator[0].out[7].channel ber 0
attr mutable ""
par Delegate_selection_on_HotStuff_2.Concentrator[0].out[7].channel per 0
attr mutable ""
par Delegate_selection_on_HotStuff_2.Concentrator[0].out[7].channel displayAsTooltip false
par Delegate_selection_on_HotStuff_2.Concentrator[0].out[7].channel thruputDisplayFormat "\"\""
par Delegate_selection_on_HotStuff_2.Creator[8].out[0].channel typename "\"delegate_selection_on_hotstuff_2.Delegate_selection_on_HotStuff_2.lteup\""
par Delegate_selection_on_HotStuff_2.Creator[8].out[0].channel disabled false
attr mutable ""
par Delegate_selection_on_HotStuff_2.Creator[8].out[0].channel delay 0.3s
attr mutable ""
attr unit s
par Delegate_selection_on_HotStuff_2.Creator[8].out[0].channel datarate 5e+06bps
attr mutable ""
attr unit bps
par Delegate_selection_on_HotStuff_2.Creator[8].out[0].channel ber 0
attr mutable ""
par Delegate_selection_on_HotStuff_2.Creator[8].out[0].channel per 0
attr mutable ""
par Delegate_selection_on_HotStuff_2.Creator[8].out[0].channel displayAsTooltip false
par Delegate_selection_on_HotStuff_2.Creator[8].out[0].channel thruputDisplayFormat "\"\""
par Delegate_selection_on_HotStuff_2.Concentrator[0].out[8].channel typename "\"delegate_selection_on_hotstuff_2.Delegate_selection_on_HotStuff_2.ltedown\""
par Delegate_selection_on_HotStuff_2.Concentrator[0].out[8].channel disabled false
attr mutable ""
par Delegate_selection_on_HotStuff_2.Concentrator[0].out[8].channel delay 0.3s
attr mutable ""
attr unit s
par Delegate_selection_on_HotStuff_2.Concentrator[0].out[8].channel datarate 5e+06bps
attr mutable ""
attr unit bps
par Delegate_selection_on_HotStuff_2.Concentrator[0].out[8].channel ber 0
attr mutable ""
par Delegate_selection_on_HotStuff_2.Concentrator[0].out[8].channel per 0
attr mutable ""
par Delegate_selection_on_HotStuff_2.Concentrator[0].out[8].channel displayAsTooltip false
par Delegate_selection_on_HotStuff_2.Concentrator[0].out[8].channel thruputDisplayFormat "\"\""
par Delegate_selection_on_HotStuff_2.Creator[9].out[0].channel typename "\"delegate_selection_on_hotstuff_2.Delegate_selection_on_HotStuff_2.lteup\""
par Delegate_selection_on_HotStuff_2.Creator[9].out[0].channel disabled false
attr mutable ""
par Delegate_selection_on_HotStuff_2.Creator[9].out[0].channel delay 0.3s
attr mutable ""
attr unit s
par Delegate_selection_on_HotStuff_2.Creator[9].out[0].channel datarate 5e+06bps
attr mutable ""
attr unit bps
par Delegate_selection_on_HotStuff_2.Creator[9].out[0].channel ber 0
attr mutable ""
par Delegate_selection_on_HotStuff_2.Creator[9].out[0].channel per 0
attr mutable ""
par Delegate_selection_on_HotStuff_2.Creator[9].out[0].channel displayAsTooltip false
par Delegate_selection_on_HotStuff_2.Creator[9].out[0].channel thruputDisplayFormat "\"\""
par Delegate_selection_on_HotStuff_2.Concentrator[0].out[9].channel typename "\"delegate_selection_on_hotstuff_2.Delegate_selection_on_HotStuff_2.ltedown\""
par Delegate_selection_on_HotStuff_2.Concentrator[0].out[9].channel disabled false
attr mutable ""
par Delegate_selection_on_HotStuff_2.Concentrator[0].out[9].channel delay 0.3s
attr mutable ""
attr unit s
par Delegate_selection_on_HotStuff_2.Concentrator[0].out[9].channel datarate 5e+06bps
attr mutable ""
attr unit bps
par Delegate_selection_on_HotStuff_2.Concentrator[0].out[9].channel ber 0
attr mutable ""
par Delegate_selection_on_HotStuff_2.Concentrator[0].out[9].channel per 0
attr mutable ""
par Delegate_selection_on_HotStuff_2.Concentrator[0].out[9].channel displayAsTooltip false
par Delegate_selection_on_HotStuff_2.Concentrator[0].out[9].channel thruputDisplayFormat "\"\""
par Delegate_selection_on_HotStuff_2.Creator[10].out[0].channel typename "\"delegate_selection_on_hotstuff_2.Delegate_selection_on_HotStuff_2.lteup\""
par Delegate_selection_on_HotStuff_2.Creator[10].out[0].channel disabled false
attr mutable ""
par Delegate_selection_on_HotStuff_2.Creator[10].out[0].channel delay 0.3s
attr mutable ""
attr unit s
par Delegate_selection_on_HotStuff_2.Creator[10].out[0].channel datarate 5e+06bps
attr mutable ""
attr unit bps
par Delegate_selection_on_HotStuff_2.Creator[10].out[0].channel ber 0
attr mutable ""
par Delegate_selection_on_HotStuff_2.Creator[10].out[0].channel per 0
attr mutable ""
par Delegate_selection_on_HotStuff_2.Creator[10].out[0].channel displayAsTooltip false
par Delegate_selection_on_HotStuff_2.Creator[10].out[0].channel thruputDisplayFormat "\"\""
par Delegate_selection_on_HotStuff_2.Concentrator[0].out[10].channel typename "\"delegate_selection_on_hotstuff_2.Delegate_selection_on_HotStuff_2.ltedown\""
par Delegate_selection_on_HotStuff_2.Concentrator[0].out[10].channel disabled false
attr mutable ""
par Delegate_selection_on_HotStuff_2.Concentrator[0].out[10].channel delay 0.3s
attr mutable ""
attr unit s
par Delegate_selection_on_HotStuff_2.Concentrator[0].out[10].channel datarate 5e+06bps
attr mutable ""
attr unit bps
par Delegate_selection_on_HotStuff_2.Concentrator[0].out[10].channel ber 0
attr mutable ""
par Delegate_selection_on_HotStuff_2.Concentrator[0].out[10].channel per 0
attr mutable ""
par Delegate_selection_on_HotStuff_2.Concentrator[0].out[10].channel displayAsTooltip false
par Delegate_selection_on_HotStuff_2.Concentrator[0].out[10].channel thruputDisplayFormat "\"\""
par Delegate_selection_on_HotStuff_2.Creator[11].out[0].channel typename "\"delegate_selection_on_hotstuff_2.Delegate_selection_on_HotStuff_2.lteup\""
par Delegate_selection_on_HotStuff_2.Creator[11].out[0].channel disabled false
attr mutable ""
par Delegate_selection_on_HotStuff_2.Creator[11].out[0].channel delay 0.3s
attr mutable ""
attr unit s
par Delegate_selection_on_HotStuff_2.Creator[11].out[0].channel datarate 5e+06bps
attr mutable ""
attr unit bps
par Delegate_selection_on_HotStuff_2.Creator[11].out[0].channel ber 0
attr mutable ""
par Delegate_selection_on_HotStuff_2.Creator[11].out[0].channel per 0
attr mutable ""
par Delegate_selection_on_HotStuff_2.Creator[11].out[0].channel displayAsTooltip false
par Delegate_selection_on_HotStuff_2.Creator[11].out[0].channel thruputDisplayFormat "\"\""
par Delegate_selection_on_HotStuff_2.Concentrator[0].out[11].channel typename "\"delegate_selection_on_hotstuff_2.Delegate_selection_on_HotStuff_2.ltedown\""
par Delegate_selection_on_HotStuff_2.Concentrator[0].out[11].channel disabled false
attr mutable ""
par Delegate_selection_on_HotStuff_2.Concentrator[0].out[11].channel delay 0.3s
attr mutable ""
attr unit s
par Delegate_selection_on_HotStuff_2.Concentrator[0].out[11].channel datarate 5e+06bps
attr mutable ""
attr unit bps
par Delegate_selection_on_HotStuff_2.Concentrator[0].out[11].channel ber 0
attr mutable ""
par Delegate_selection_on_HotStuff_2.Concentrator[0].out[11].channel per 0
attr mutable ""
par Delegate_selection_on_HotStuff_2.Concentrator[0].out[11].channel displayAsTooltip false
par Delegate_selection_on_HotStuff_2.Concentrator[0].out[11].channel thruputDisplayFormat "\"\""
par Delegate_selection_on_HotStuff_2.Creator[12].out[0].channel typename "\"delegate_selection_on_hotstuff_2.Delegate_selection_on_HotStuff_2.lteup\""
par Delegate_selection_on_HotStuff_2.Creator[12].out[0].channel disabled false
attr mutable ""
par Delegate_selection_on_HotStuff_2.Creator[12].out[0].channel delay 0.3s
attr mutable ""
attr unit s
par Delegate_selection_on_HotStuff_2.Creator[12].out[0].channel datarate 5e+06bps
attr mutable ""
attr unit bps
par Delegate_selection_on_HotStuff_2.Creator[12].out[0].channel ber 0
attr mutable ""
par Delegate_selection_on_HotStuff_2.Creator[12].out[0].channel per 0
attr mutable ""
par Delegate_selection_on_HotStuff_2.Creator[12].out[0].channel displayAsTooltip false
par Delegate_selection_on_HotStuff_2.Creator[12].out[0].channel thruputDisplayFormat "\"\""
par Delegate_selection_on_HotStuff_2.Concentrator[0].out[12].channel typename "\"delegate_selection_on_hotstuff_2.Delegate_selection_on_HotStuff_2.ltedown\""
par Delegate_selection_on_HotStuff_2.Concentrator[0].out[12].channel disabled false
attr mutable ""
par Delegate_selection_on_HotStuff_2.Concentrator[0].out[12].channel delay 0.3s
attr mutable ""
attr unit s
par Delegate_selection_on_HotStuff_2.Concentrator[0].out[12].channel datarate 5e+06bps
attr mutable ""
attr unit bps
par Delegate_selection_on_HotStuff_2.Concentrator[0].out[12].channel ber 0
attr mutable ""
par Delegate_selection_on_HotStuff_2.Concentrator[0].out[12].channel per 0
attr mutable ""
par Delegate_selection_on_HotStuff_2.Concentrator[0].out[12].channel displayAsTooltip false
par Delegate_selection_on_HotStuff_2.Concentrator[0].out[12].channel thruputDisplayFormat "\"\""
par Delegate_selection_on_HotStuff_2.Creator[13].out[0].channel typename "\"delegate_selection_on_hotstuff_2.Delegate_selection_on_HotStuff_2.lteup\""
par Delegate_selection_on_HotStuff_2.Creator[13].out[0].channel disabled false
attr mutable ""
par Delegate_selection_on_HotStuff_2.Creator[13].out[0].channel delay 0.3s
attr mutable ""
attr unit s
par Delegate_selection_on_HotStuff_2.Creator[13].out[0].channel datarate 5e+06bps
attr mutable ""
attr unit bps
par Delegate_selection_on_HotStuff_2.Creator[13].out[0].channel ber 0
attr mutable ""
par Delegate_selection_on_HotStuff_2.Creator[13].out[0].channel per 0
attr mutable ""
par Delegate_selection_on_HotStuff_2.Creator[13].out[0].channel displayAsTooltip false
par Delegate_selection_on_HotStuff_2.Creator[13].out[0].channel thruputDisplayFormat "\"\""
par Delegate_selection_on_HotStuff_2.Concentrator[0].out[13].channel typename "\"delegate_selection_on_hotstuff_2.Delegate_selection_on_HotStuff_2.ltedown\""
par Delegate_selection_on_HotStuff_2.Concentrator[0].out[13].channel disabled false
attr mutable ""
par Delegate_selection_on_HotStuff_2.Concentrator[0].out[13].channel delay 0.3s
attr mutable ""
attr unit s
par Delegate_selection_on_HotStuff_2.Concentrator[0].out[13].channel datarate 5e+06bps
attr mutable ""
attr unit bps
par Delegate_selection_on_HotStuff_2.Concentrator[0].out[13].channel ber 0
attr mutable ""
par Delegate_selection_on_HotStuff_2.Concentrator[0].out[13].channel per 0
attr mutable ""
par Delegate_selection_on_HotStuff_2.Concentrator[0].out[13].channel displayAsTooltip false
par Delegate_selection_on_HotStuff_2.Concentrator[0].out[13].channel thruputDisplayFormat "\"\""
par Delegate_selection_on_HotStuff_2.Creator[14].out[0].channel typename "\"delegate_selection_on_hotstuff_2.Delegate_selection_on_HotStuff_2.lteup\""
par Delegate_selection_on_HotStuff_2.Creator[14].out[0].channel disabled false
attr mutable ""
par Delegate_selection_on_HotStuff_2.Creator[14].out[0].channel delay 0.3s
attr mutable ""
attr unit s
par Delegate_selection_on_HotStuff_2.Creator[14].out[0].channel datarate 5e+06bps
attr mutable ""
attr unit bps
par Delegate_selection_on_HotStuff_2.Creator[14].out[0].channel ber 0
attr mutable ""
par Delegate_selection_on_HotStuff_2.Creator[14].out[0].channel per 0
attr mutable ""
par Delegate_selection_on_HotStuff_2.Creator[14].out[0].channel displayAsTooltip false
par Delegate_selection_on_HotStuff_2.Creator[14].out[0].channel thruputDisplayFormat "\"\""
par Delegate_selection_on_HotStuff_2.Concentrator[0].out[14].channel typename "\"delegate_selection_on_hotstuff_2.Delegate_selection_on_HotStuff_2.ltedown\""
par Delegate_selection_on_HotStuff_2.Concentrator[0].out[14].channel disabled false
attr mutable ""
par Delegate_selection_on_HotStuff_2.Concentrator[0].out[14].channel delay 0.3s
attr mutable ""
attr unit s
par Delegate_selection_on_HotStuff_2.Concentrator[0].out[14].channel datarate 5e+06bps
attr mutable ""
attr unit bps
par Delegate_selection_on_HotStuff_2.Concentrator[0].out[14].channel ber 0
attr mutable ""
par Delegate_selection_on_HotStuff_2.Concentrator[0].out[14].channel per 0
attr mutable ""
par Delegate_selection_on_HotStuff_2.Concentrator[0].out[14].channel displayAsTooltip false
par Delegate_selection_on_HotStuff_2.Concentrator[0].out[14].channel thruputDisplayFormat "\"\""
par Delegate_selection_on_HotStuff_2.Creator[15].out[0].channel typename "\"delegate_selection_on_hotstuff_2.Delegate_selection_on_HotStuff_2.lteup\""
par Delegate_selection_on_HotStuff_2.Creator[15].out[0].channel disabled false
attr mutable ""
par Delegate_selection_on_HotStuff_2.Creator[15].out[0].channel delay 0.3s
attr mutable ""
attr unit s
par Delegate_selection_on_HotStuff_2.Creator[15].out[0].channel datarate 5e+06bps
attr mutable ""
attr unit bps
par Delegate_selection_on_HotStuff_2.Creator[15].out[0].channel ber 0
attr mutable ""
par Delegate_selection_on_HotStuff_2.Creator[15].out[0].channel per 0
attr mutable ""
par Delegate_selection_on_HotStuff_2.Creator[15].out[0].channel displayAsTooltip false
par Delegate_selection_on_HotStuff_2.Creator[15].out[0].channel thruputDisplayFormat "\"\""
par Delegate_selection_on_HotStuff_2.Concentrator[0].out[15].channel typename "\"delegate_selection_on_hotstuff_2.Delegate_selection_on_HotStuff_2.ltedown\""
par Delegate_selection_on_HotStuff_2.Concentrator[0].out[15].channel disabled false
attr mutable ""
par Delegate_selection_on_HotStuff_2.Concentrator[0].out[15].channel delay 0.3s
attr mutable ""
attr unit s
par Delegate_selection_on_HotStuff_2.Concentrator[0].out[15].channel datarate 5e+06bps
attr mutable ""
attr unit bps
par Delegate_selection_on_HotStuff_2.Concentrator[0].out[15].channel ber 0
attr mutable ""
par Delegate_selection_on_HotStuff_2.Concentrator[0].out[15].channel per 0
attr mutable ""
par Delegate_selection_on_HotStuff_2.Concentrator[0].out[15].channel displayAsTooltip false
par Delegate_selection_on_HotStuff_2.Concentrator[0].out[15].channel thruputDisplayFormat "\"\""
par Delegate_selection_on_HotStuff_2.Creator[16].out[0].channel typename "\"delegate_selection_on_hotstuff_2.Delegate_selection_on_HotStuff_2.lteup\""
par Delegate_selection_on_HotStuff_2.Creator[16].out[0].channel disabled false
attr mutable ""
par Delegate_selection_on_HotStuff_2.Creator[16].out[0].channel delay 0.3s
attr mutable ""
attr unit s
par Delegate_selection_on_HotStuff_2.Creator[16].out[0].channel datarate 5e+06bps
attr mutable ""
attr unit bps
par Delegate_selection_on_HotStuff_2.Creator[16].out[0].channel ber 0
attr mutable ""
par Delegate_selection_on_HotStuff_2.Creator[16].out[0].channel per 0
attr mutable ""
par Delegate_selection_on_HotStuff_2.Creator[16].out[0].channel displayAsTooltip false
par Delegate_selection_on_HotStuff_2.Creator[16].out[0].channel thruputDisplayFormat "\"\""
par Delegate_selection_on_HotStuff_2.Concentrator[0].out[16].channel typename "\"delegate_selection_on_hotstuff_2.Delegate_selection_on_HotStuff_2.ltedown\""
par Delegate_selection_on_HotStuff_2.Concentrator[0].out[16].channel disabled false
attr mutable ""
par Delegate_selection_on_HotStuff_2.Concentrator[0].out[16].channel delay 0.3s
attr mutable ""
attr unit s
par Delegate_selection_on_HotStuff_2.Concentrator[0].out[16].channel datarate 5e+06bps
attr mutable ""
attr unit bps
par Delegate_selection_on_HotStuff_2.Concentrator[0].out[16].channel ber 0
attr mutable ""
par Delegate_selection_on_HotStuff_2.Concentrator[0].out[16].channel per 0
attr mutable ""
par Delegate_selection_on_HotStuff_2.Concentrator[0].out[16].channel displayAsTooltip false
par Delegate_selection_on_HotStuff_2.Concentrator[0].out[16].channel thruputDisplayFormat "\"\""
par Delegate_selection_on_HotStuff_2.Creator[17].out[0].channel typename "\"delegate_selection_on_hotstuff_2.Delegate_selection_on_HotStuff_2.lteup\""
par Delegate_selection_on_HotStuff_2.Creator[17].out[0].channel disabled false
attr mutable ""
par Delegate_selection_on_HotStuff_2.Creator[17].out[0].channel delay 0.3s
attr mutable ""
attr unit s
par Delegate_selection_on_HotStuff_2.Creator[17].out[0].channel datarate 5e+06bps
attr mutable ""
attr unit bps
par Delegate_selection_on_HotStuff_2.Creator[17].out[0].channel ber 0
attr mutable ""
par Delegate_selection_on_HotStuff_2.Creator[17].out[0].channel per 0
attr mutable ""
par Delegate_selection_on_HotStuff_2.Creator[17].out[0].channel displayAsTooltip false
par Delegate_selection_on_HotStuff_2.Creator[17].out[0].channel thruputDisplayFormat "\"\""
par Delegate_selection_on_HotStuff_2.Concentrator[0].out[17].channel typename "\"delegate_selection_on_hotstuff_2.Delegate_selection_on_HotStuff_2.ltedown\""
par Delegate_selection_on_HotStuff_2.Concentrator[0].out[17].channel disabled false
attr mutable ""
par Delegate_selection_on_HotStuff_2.Concentrator[0].out[17].channel delay 0.3s
attr mutable ""
attr unit s
par Delegate_selection_on_HotStuff_2.Concentrator[0].out[17].channel datarate 5e+06bps
attr mutable ""
attr unit bps
par Delegate_selection_on_HotStuff_2.Concentrator[0].out[17].channel ber 0
attr mutable ""
par Delegate_selection_on_HotStuff_2.Concentrator[0].out[17].channel per 0
attr mutable ""
par Delegate_selection_on_HotStuff_2.Concentrator[0].out[17].channel displayAsTooltip false
par Delegate_selection_on_HotStuff_2.Concentrator[0].out[17].channel thruputDisplayFormat "\"\""
par Delegate_selection_on_HotStuff_2.Creator[18].out[0].channel typename "\"delegate_selection_on_hotstuff_2.Delegate_selection_on_HotStuff_2.lteup\""
par Delegate_selection_on_HotStuff_2.Creator[18].out[0].channel disabled false
attr mutable ""
par Delegate_selection_on_HotStuff_2.Creator[18].out[0].channel delay 0.3s
attr mutable ""
attr unit s
par Delegate_selection_on_HotStuff_2.Creator[18].out[0].channel datarate 5e+06bps
attr mutable ""
attr unit bps
par Delegate_selection_on_HotStuff_2.Creator[18].out[0].channel ber 0
attr mutable ""
par Delegate_selection_on_HotStuff_2.Creator[18].out[0].channel per 0
attr mutable ""
par Delegate_selection_on_HotStuff_2.Creator[18].out[0].channel displayAsTooltip false
par Delegate_selection_on_HotStuff_2.Creator[18].out[0].channel thruputDisplayFormat "\"\""
par Delegate_selection_on_HotStuff_2.Concentrator[0].out[18].channel typename "\"delegate_selection_on_hotstuff_2.Delegate_selection_on_HotStuff_2.ltedown\""
par Delegate_selection_on_HotStuff_2.Concentrator[0].out[18].channel disabled false
attr mutable ""
par Delegate_selection_on_HotStuff_2.Concentrator[0].out[18].channel delay 0.3s
attr mutable ""
attr unit s
par Delegate_selection_on_HotStuff_2.Concentrator[0].out[18].channel datarate 5e+06bps
attr mutable ""
attr unit bps
par Delegate_selection_on_HotStuff_2.Concentrator[0].out[18].channel ber 0
attr mutable ""
par Delegate_selection_on_HotStuff_2.Concentrator[0].out[18].channel per 0
attr mutable ""
par Delegate_selection_on_HotStuff_2.Concentrator[0].out[18].channel displayAsTooltip false
par Delegate_selection_on_HotStuff_2.Concentrator[0].out[18].channel thruputDisplayFormat "\"\""
par Delegate_selection_on_HotStuff_2.Creator[19].out[0].channel typename "\"delegate_selection_on_hotstuff_2.Delegate_selection_on_HotStuff_2.lteup\""
par Delegate_selection_on_HotStuff_2.Creator[19].out[0].channel disabled false
attr mutable ""
par Delegate_selection_on_HotStuff_2.Creator[19].out[0].channel delay 0.3s
attr mutable ""
attr unit s
par Delegate_selection_on_HotStuff_2.Creator[19].out[0].channel datarate 5e+06bps
attr mutable ""
attr unit bps
par Delegate_selection_on_HotStuff_2.Creator[19].out[0].channel ber 0
attr mutable ""
par Delegate_selection_on_HotStuff_2.Creator[19].out[0].channel per 0
attr mutable ""
par Delegate_selection_on_HotStuff_2.Creator[19].out[0].channel displayAsTooltip false
par Delegate_selection_on_HotStuff_2.Creator[19].out[0].channel thruputDisplayFormat "\"\""
par Delegate_selection_on_HotStuff_2.Concentrator[0].out[19].channel typename "\"delegate_selection_on_hotstuff_2.Delegate_selection_on_HotStuff_2.ltedown\""
par Delegate_selection_on_HotStuff_2.Concentrator[0].out[19].channel disabled false
attr mutable ""
par Delegate_selection_on_HotStuff_2.Concentrator[0].out[19].channel delay 0.3s
attr mutable ""
attr unit s
par Delegate_selection_on_HotStuff_2.Concentrator[0].out[19].channel datarate 5e+06bps
attr mutable ""
attr unit bps
par Delegate_selection_on_HotStuff_2.Concentrator[0].out[19].channel ber 0
attr mutable ""
par Delegate_selection_on_HotStuff_2.Concentrator[0].out[19].channel per 0
attr mutable ""
par Delegate_selection_on_HotStuff_2.Concentrator[0].out[19].channel displayAsTooltip false
par Delegate_selection_on_HotStuff_2.Concentrator[0].out[19].channel thruputDisplayFormat "\"\""
par Delegate_selection_on_HotStuff_2.Creator[20].out[0].channel typename "\"delegate_selection_on_hotstuff_2.Delegate_selection_on_HotStuff_2.lteup\""
par Delegate_selection_on_HotStuff_2.Creator[20].out[0].channel disabled false
attr mutable ""
par Delegate_selection_on_HotStuff_2.Creator[20].out[0].channel delay 0.3s
attr mutable ""
attr unit s
par Delegate_selection_on_HotStuff_2.Creator[20].out[0].channel datarate 5e+06bps
attr mutable ""
attr unit bps
par Delegate_selection_on_HotStuff_2.Creator[20].out[0].channel ber 0
attr mutable ""
par Delegate_selection_on_HotStuff_2.Creator[20].out[0].channel per 0
attr mutable ""
par Delegate_selection_on_HotStuff_2.Creator[20].out[0].channel displayAsTooltip false
par Delegate_selection_on_HotStuff_2.Creator[20].out[0].channel thruputDisplayFormat "\"\""
par Delegate_selection_on_HotStuff_2.Concentrator[0].out[20].channel typename "\"delegate_selection_on_hotstuff_2.Delegate_selection_on_HotStuff_2.ltedown\""
par Delegate_selection_on_HotStuff_2.Concentrator[0].out[20].channel disabled false
attr mutable ""
par Delegate_selection_on_HotStuff_2.Concentrator[0].out[20].channel delay 0.3s
attr mutable ""
attr unit s
par Delegate_selection_on_HotStuff_2.Concentrator[0].out[20].channel datarate 5e+06bps
attr mutable ""
attr unit bps
par Delegate_selection_on_HotStuff_2.Concentrator[0].out[20].channel ber 0
attr mutable ""
par Delegate_selection_on_HotStuff_2.Concentrator[0].out[20].channel per 0
attr mutable ""
par Delegate_selection_on_HotStuff_2.Concentrator[0].out[20].channel displayAsTooltip false
par Delegate_selection_on_HotStuff_2.Concentrator[0].out[20].channel thruputDisplayFormat "\"\""
par Delegate_selection_on_HotStuff_2.Creator[21].out[0].channel typename "\"delegate_selection_on_hotstuff_2.Delegate_selection_on_HotStuff_2.lteup\""
par Delegate_selection_on_HotStuff_2.Creator[21].out[0].channel disabled false
attr mutable ""
par Delegate_selection_on_HotStuff_2.Creator[21].out[0].channel delay 0.3s
attr mutable ""
attr unit s
par Delegate_selection_on_HotStuff_2.Creator[21].out[0].channel datarate 5e+06bps
attr mutable ""
attr unit bps
par Delegate_selection_on_HotStuff_2.Creator[21].out[0].channel ber 0
attr mutable ""
par Delegate_selection_on_HotStuff_2.Creator[21].out[0].channel per 0
attr mutable ""
par Delegate_selection_on_HotStuff_2.Creator[21].out[0].channel displayAsTooltip false
par Delegate_selection_on_HotStuff_2.Creator[21].out[0].channel thruputDisplayFormat "\"\""
par Delegate_selection_on_HotStuff_2.Concentrator[0].out[21].channel typename "\"delegate_selection_on_hotstuff_2.Delegate_selection_on_HotStuff_2.ltedown\""
par Delegate_selection_on_HotStuff_2.Concentrator[0].out[21].channel disabled false
attr mutable ""
par Delegate_selection_on_HotStuff_2.Concentrator[0].out[21].channel delay 0.3s
attr mutable ""
attr unit s
par Delegate_selection_on_HotStuff_2.Concentrator[0].out[21].channel datarate 5e+06bps
attr mutable ""
attr unit bps
par Delegate_selection_on_HotStuff_2.Concentrator[0].out[21].channel ber 0
attr mutable ""
par Delegate_selection_on_HotStuff_2.Concentrator[0].out[21].channel per 0
attr mutable ""
par Delegate_selection_on_HotStuff_2.Concentrator[0].out[21].channel displayAsTooltip false
par Delegate_selection_on_HotStuff_2.Concentrator[0].out[21].channel thruputDisplayFormat "\"\""
par Delegate_selection_on_HotStuff_2.Creator[22].out[0].channel typename "\"delegate_selection_on_hotstuff_2.Delegate_selection_on_HotStuff_2.lteup\""
par Delegate_selection_on_HotStuff_2.Creator[22].out[0].channel disabled false
attr mutable ""
par Delegate_selection_on_HotStuff_2.Creator[22].out[0].channel delay 0.3s
attr mutable ""
attr unit s
par Delegate_selection_on_HotStuff_2.Creator[22].out[0].channel datarate 5e+06bps
attr mutable ""
attr unit bps
par Delegate_selection_on_HotStuff_2.Creator[22].out[0].channel ber 0
attr mutable ""
par Delegate_selection_on_HotStuff_2.Creator[22].out[0].channel per 0
attr mutable ""
par Delegate_selection_on_HotStuff_2.Creator[22].out[0].channel displayAsTooltip false
par Delegate_selection_on_HotStuff_2.Creator[22].out[0].channel thruputDisplayFormat "\"\""
par Delegate_selection_on_HotStuff_2.Concentrator[0].out[22].channel typename "\"delegate_selection_on_hotstuff_2.Delegate_selection_on_HotStuff_2.ltedown\""
par Delegate_selection_on_HotStuff_2.Concentrator[0].out[22].channel disabled false
attr mutable ""
par Delegate_selection_on_HotStuff_2.Concentrator[0].out[22].channel delay 0.3s
attr mutable ""
attr unit s
par Delegate_selection_on_HotStuff_2.Concentrator[0].out[22].channel datarate 5e+06bps
attr mutable ""
attr unit bps
par Delegate_selection_on_HotStuff_2.Concentrator[0].out[22].channel ber 0
attr mutable ""
par Delegate_selection_on_HotStuff_2.Concentrator[0].out[22].channel per 0
attr mutable ""
par Delegate_selection_on_HotStuff_2.Concentrator[0].out[22].channel displayAsTooltip false
par Delegate_selection_on_HotStuff_2.Concentrator[0].out[22].channel thruputDisplayFormat "\"\""
par Delegate_selection_on_HotStuff_2.Creator[23].out[0].channel typename "\"delegate_selection_on_hotstuff_2.Delegate_selection_on_HotStuff_2.lteup\""
par Delegate_selection_on_HotStuff_2.Creator[23].out[0].channel disabled false
attr mutable ""
par Delegate_selection_on_HotStuff_2.Creator[23].out[0].channel delay 0.3s
attr mutable ""
attr unit s
par Delegate_selection_on_HotStuff_2.Creator[23].out[0].channel datarate 5e+06bps
attr mutable ""
attr unit bps
par Delegate_selection_on_HotStuff_2.Creator[23].out[0].channel ber 0
attr mutable ""
par Delegate_selection_on_HotStuff_2.Creator[23].out[0].channel per 0
attr mutable ""
par Delegate_selection_on_HotStuff_2.Creator[23].out[0].channel displayAsTooltip false
par Delegate_selection_on_HotStuff_2.Creator[23].out[0].channel thruputDisplayFormat "\"\""
par Delegate_selection_on_HotStuff_2.Concentrator[0].out[23].channel typename "\"delegate_selection_on_hotstuff_2.Delegate_selection_on_HotStuff_2.ltedown\""
par Delegate_selection_on_HotStuff_2.Concentrator[0].out[23].channel disabled false
attr mutable ""
par Delegate_selection_on_HotStuff_2.Concentrator[0].out[23].channel delay 0.3s
attr mutable ""
attr unit s
par Delegate_selection_on_HotStuff_2.Concentrator[0].out[23].channel datarate 5e+06bps
attr mutable ""
attr unit bps
par Delegate_selection_on_HotStuff_2.Concentrator[0].out[23].channel ber 0
attr mutable ""
par Delegate_selection_on_HotStuff_2.Concentrator[0].out[23].channel per 0
attr mutable ""
par Delegate_selection_on_HotStuff_2.Concentrator[0].out[23].channel displayAsTooltip false
par Delegate_selection_on_HotStuff_2.Concentrator[0].out[23].channel thruputDisplayFormat "\"\""
par Delegate_selection_on_HotStuff_2.Creator[24].out[0].channel typename "\"delegate_selection_on_hotstuff_2.Delegate_selection_on_HotStuff_2.lteup\""
par Delegate_selection_on_HotStuff_2.Creator[24].out[0].channel disabled false
attr mutable ""
par Delegate_selection_on_HotStuff_2.Creator[24].out[0].channel delay 0.3s
attr mutable ""
attr unit s
par Delegate_selection_on_HotStuff_2.Creator[24].out[0].channel datarate 5e+06bps
attr mutable ""
attr unit bps
par Delegate_selection_on_HotStuff_2.Creator[24].out[0].channel ber 0
attr mutable ""
par Delegate_selection_on_HotStuff_2.Creator[24].out[0].channel per 0
attr mutable ""
par Delegate_selection_on_HotStuff_2.Creator[24].out[0].channel displayAsTooltip false
par Delegate_selection_on_HotStuff_2.Creator[24].out[0].channel thruputDisplayFormat "\"\""
par Delegate_selection_on_HotStuff_2.Concentrator[0].out[24].channel typename "\"delegate_selection_on_hotstuff_2.Delegate_selection_on_HotStuff_2.ltedown\""
par Delegate_selection_on_HotStuff_2.Concentrator[0].out[24].channel disabled false
attr mutable ""
par Delegate_selection_on_HotStuff_2.Concentrator[0].out[24].channel delay 0.3s
attr mutable ""
attr unit s
par Delegate_selection_on_HotStuff_2.Concentrator[0].out[24].channel datarate 5e+06bps
attr mutable ""
attr unit bps
par Delegate_selection_on_HotStuff_2.Concentrator[0].out[24].channel ber 0
attr mutable ""
par Delegate_selection_on_HotStuff_2.Concentrator[0].out[24].channel per 0
attr mutable ""
par Delegate_selection_on_HotStuff_2.Concentrator[0].out[24].channel displayAsTooltip false
par Delegate_selection_on_HotStuff_2.Concentrator[0].out[24].channel thruputDisplayFormat "\"\""
par Delegate_selection_on_HotStuff_2.Creator[25].out[0].channel typename "\"delegate_selection_on_hotstuff_2.Delegate_selection_on_HotStuff_2.lteup\""
par Delegate_selection_on_HotStuff_2.Creator[25].out[0].channel disabled false
attr mutable ""
par Delegate_selection_on_HotStuff_2.Creator[25].out[0].channel delay 0.3s
attr mutable ""
attr unit s
par Delegate_selection_on_HotStuff_2.Creator[25].out[0].channel datarate 5e+06bps
attr mutable ""
attr unit bps
par Delegate_selection_on_HotStuff_2.Creator[25].out[0].channel ber 0
attr mutable ""
par Delegate_selection_on_HotStuff_2.Creator[25].out[0].channel per 0
attr mutable ""
par Delegate_selection_on_HotStuff_2.Creator[25].out[0].channel displayAsTooltip false
par Delegate_selection_on_HotStuff_2.Creator[25].out[0].channel thruputDisplayFormat "\"\""
par Delegate_selection_on_HotStuff_2.Concentrator[0].out[25].channel typename "\"delegate_selection_on_hotstuff_2.Delegate_selection_on_HotStuff_2.ltedown\""
par Delegate_selection_on_HotStuff_2.Concentrator[0].out[25].channel disabled false
attr mutable ""
par Delegate_selection_on_HotStuff_2.Concentrator[0].out[25].channel delay 0.3s
attr mutable ""
attr unit s
par Delegate_selection_on_HotStuff_2.Concentrator[0].out[25].channel datarate 5e+06bps
attr mutable ""
attr unit bps
par Delegate_selection_on_HotStuff_2.Concentrator[0].out[25].channel ber 0
attr mutable ""
par Delegate_selection_on_HotStuff_2.Concentrator[0].out[25].channel per 0
attr mutable ""
par Delegate_selection_on_HotStuff_2.Concentrator[0].out[25].channel displayAsTooltip false
par Delegate_selection_on_HotStuff_2.Concentrator[0].out[25].channel thruputDisplayFormat "\"\""
par Delegate_selection_on_HotStuff_2.Creator[26].out[0].channel typename "\"delegate_selection_on_hotstuff_2.Delegate_selection_on_HotStuff_2.lteup\""
par Delegate_selection_on_HotStuff_2.Creator[26].out[0].channel disabled false
attr mutable ""
par Delegate_selection_on_HotStuff_2.Creator[26].out[0].channel delay 0.3s
attr mutable ""
attr unit s
par Delegate_selection_on_HotStuff_2.Creator[26].out[0].channel datarate 5e+06bps
attr mutable ""
attr unit bps
par Delegate_selection_on_HotStuff_2.Creator[26].out[0].channel ber 0
attr mutable ""
par Delegate_selection_on_HotStuff_2.Creator[26].out[0].channel per 0
attr mutable ""
par Delegate_selection_on_HotStuff_2.Creator[26].out[0].channel displayAsTooltip false
par Delegate_selection_on_HotStuff_2.Creator[26].out[0].channel thruputDisplayFormat "\"\""
par Delegate_selection_on_HotStuff_2.Concentrator[0].out[26].channel typename "\"delegate_selection_on_hotstuff_2.Delegate_selection_on_HotStuff_2.ltedown\""
par Delegate_selection_on_HotStuff_2.Concentrator[0].out[26].channel disabled false
attr mutable ""
par Delegate_selection_on_HotStuff_2.Concentrator[0].out[26].channel delay 0.3s
attr mutable ""
attr unit s
par Delegate_selection_on_HotStuff_2.Concentrator[0].out[26].channel datarate 5e+06bps
attr mutable ""
attr unit bps
par Delegate_selection_on_HotStuff_2.Concentrator[0].out[26].channel ber 0
attr mutable ""
par Delegate_selection_on_HotStuff_2.Concentrator[0].out[26].channel per 0
attr mutable ""
par Delegate_selection_on_HotStuff_2.Concentrator[0].out[26].channel displayAsTooltip false
par Delegate_selection_on_HotStuff_2.Concentrator[0].out[26].channel thruputDisplayFormat "\"\""
par Delegate_selection_on_HotStuff_2.Creator[27].out[0].channel typename "\"delegate_selection_on_hotstuff_2.Delegate_selection_on_HotStuff_2.lteup\""
par Delegate_selection_on_HotStuff_2.Creator[27].out[0].channel disabled false
attr mutable ""
par Delegate_selection_on_HotStuff_2.Creator[27].out[0].channel delay 0.3s
attr mutable ""
attr unit s
par Delegate_selection_on_HotStuff_2.Creator[27].out[0].channel datarate 5e+06bps
attr mutable ""
attr unit bps
par Delegate_selection_on_HotStuff_2.Creator[27].out[0].channel ber 0
attr mutable ""
par Delegate_selection_on_HotStuff_2.Creator[27].out[0].channel per 0
attr mutable ""
par Delegate_selection_on_HotStuff_2.Creator[27].out[0].channel displayAsTooltip false
par Delegate_selection_on_HotStuff_2.Creator[27].out[0].channel thruputDisplayFormat "\"\""
par Delegate_selection_on_HotStuff_2.Concentrator[0].out[27].channel typename "\"delegate_selection_on_hotstuff_2.Delegate_selection_on_HotStuff_2.ltedown\""
par Delegate_selection_on_HotStuff_2.Concentrator[0].out[27].channel disabled false
attr mutable ""
par Delegate_selection_on_HotStuff_2.Concentrator[0].out[27].channel delay 0.3s
attr mutable ""
attr unit s
par Delegate_selection_on_HotStuff_2.Concentrator[0].out[27].channel datarate 5e+06bps
attr mutable ""
attr unit bps
par Delegate_selection_on_HotStuff_2.Concentrator[0].out[27].channel ber 0
attr mutable ""
par Delegate_selection_on_HotStuff_2.Concentrator[0].out[27].channel per 0
attr mutable ""
par Delegate_selection_on_HotStuff_2.Concentrator[0].out[27].channel displayAsTooltip false
par Delegate_selection_on_HotStuff_2.Concentrator[0].out[27].channel thruputDisplayFormat "\"\""
par Delegate_selection_on_HotStuff_2.Creator[28].out[0].channel typename "\"delegate_selection_on_hotstuff_2.Delegate_selection_on_HotStuff_2.lteup\""
par Delegate_selection_on_HotStuff_2.Creator[28].out[0].channel disabled false
attr mutable ""
par Delegate_selection_on_HotStuff_2.Creator[28].out[0].channel delay 0.3s
attr mutable ""
attr unit s
par Delegate_selection_on_HotStuff_2.Creator[28].out[0].channel datarate 5e+06bps
attr mutable ""
attr unit bps
par Delegate_selection_on_HotStuff_2.Creator[28].out[0].channel ber 0
attr mutable ""
par Delegate_selection_on_HotStuff_2.Creator[28].out[0].channel per 0
attr mutable ""
par Delegate_selection_on_HotStuff_2.Creator[28].out[0].channel displayAsTooltip false
par Delegate_selection_on_HotStuff_2.Creator[28].out[0].channel thruputDisplayFormat "\"\""
par Delegate_selection_on_HotStuff_2.Concentrator[0].out[28].channel typename "\"delegate_selection_on_hotstuff_2.Delegate_selection_on_HotStuff_2.ltedown\""
par Delegate_selection_on_HotStuff_2.Concentrator[0].out[28].channel disabled false
attr mutable ""
par Delegate_selection_on_HotStuff_2.Concentrator[0].out[28].channel delay 0.3s
attr mutable ""
attr unit s
par Delegate_selection_on_HotStuff_2.Concentrator[0].out[28].channel datarate 5e+06bps
attr mutable ""
attr unit bps
par Delegate_selection_on_HotStuff_2.Concentrator[0].out[28].channel ber 0
attr mutable ""
par Delegate_selection_on_HotStuff_2.Concentrator[0].out[28].channel per 0
attr mutable ""
par Delegate_selection_on_HotStuff_2.Concentrator[0].out[28].channel displayAsTooltip false
par Delegate_selection_on_HotStuff_2.Concentrator[0].out[28].channel thruputDisplayFormat "\"\""
par Delegate_selection_on_HotStuff_2.Creator[29].out[0].channel typename "\"delegate_selection_on_hotstuff_2.Delegate_selection_on_HotStuff_2.lteup\""
par Delegate_selection_on_HotStuff_2.Creator[29].out[0].channel disabled false
attr mutable ""
par Delegate_selection_on_HotStuff_2.Creator[29].out[0].channel delay 0.3s
attr mutable ""
attr unit s
par Delegate_selection_on_HotStuff_2.Creator[29].out[0].channel datarate 5e+06bps
attr mutable ""
attr unit bps
par Delegate_selection_on_HotStuff_2.Creator[29].out[0].channel ber 0
attr mutable ""
par Delegate_selection_on_HotStuff_2.Creator[29].out[0].channel per 0
attr mutable ""
par Delegate_selection_on_HotStuff_2.Creator[29].out[0].channel displayAsTooltip false
par Delegate_selection_on_HotStuff_2.Creator[29].out[0].channel thruputDisplayFormat "\"\""
par Delegate_selection_on_HotStuff_2.Concentrator[0].out[29].channel typename "\"delegate_selection_on_hotstuff_2.Delegate_selection_on_HotStuff_2.ltedown\""
par Delegate_selection_on_HotStuff_2.Concentrator[0].out[29].channel disabled false
attr mutable ""
par Delegate_selection_on_HotStuff_2.Concentrator[0].out[29].channel delay 0.3s
attr mutable ""
attr unit s
par Delegate_selection_on_HotStuff_2.Concentrator[0].out[29].channel datarate 5e+06bps
attr mutable ""
attr unit bps
par Delegate_selection_on_HotStuff_2.Concentrator[0].out[29].channel ber 0
attr mutable ""
par Delegate_selection_on_HotStuff_2.Concentrator[0].out[29].channel per 0
attr mutable ""
par Delegate_selection_on_HotStuff_2.Concentrator[0].out[29].channel displayAsTooltip false
par Delegate_selection_on_HotStuff_2.Concentrator[0].out[29].channel thruputDisplayFormat "\"\""
par Delegate_selection_on_HotStuff_2.Creator[30].out[0].channel typename "\"delegate_selection_on_hotstuff_2.Delegate_selection_on_HotStuff_2.lteup\""
par Delegate_selection_on_HotStuff_2.Creator[30].out[0].channel disabled false
attr mutable ""
par Delegate_selection_on_HotStuff_2.Creator[30].out[0].channel delay 0.3s
attr mutable ""
attr unit s
par Delegate_selection_on_HotStuff_2.Creator[30].out[0].channel datarate 5e+06bps
attr mutable ""
attr unit bps
par Delegate_selection_on_HotStuff_2.Creator[30].out[0].channel ber 0
attr mutable ""
par Delegate_selection_on_HotStuff_2.Creator[30].out[0].channel per 0
attr mutable ""
par Delegate_selection_on_HotStuff_2.Creator[30].out[0].channel displayAsTooltip false
par Delegate_selection_on_HotStuff_2.Creator[30].out[0].channel thruputDisplayFormat "\"\""
par Delegate_selection_on_HotStuff_2.Concentrator[0].out[30].channel typename "\"delegate_selection_on_hotstuff_2.Delegate_selection_on_HotStuff_2.ltedown\""
par Delegate_selection_on_HotStuff_2.Concentrator[0].out[30].channel disabled false
attr mutable ""
par Delegate_selection_on_HotStuff_2.Concentrator[0].out[30].channel delay 0.3s
attr mutable ""
attr unit s
par Delegate_selection_on_HotStuff_2.Concentrator[0].out[30].channel datarate 5e+06bps
attr mutable ""
attr unit bps
par Delegate_selection_on_HotStuff_2.Concentrator[0].out[30].channel ber 0
attr mutable ""
par Delegate_selection_on_HotStuff_2.Concentrator[0].out[30].channel per 0
attr mutable ""
par Delegate_selection_on_HotStuff_2.Concentrator[0].out[30].channel displayAsTooltip false
par Delegate_selection_on_HotStuff_2.Concentrator[0].out[30].channel thruputDisplayFormat "\"\""
par Delegate_selection_on_HotStuff_2.Creator[31].out[0].channel typename "\"delegate_selection_on_hotstuff_2.Delegate_selection_on_HotStuff_2.lteup\""
par Delegate_selection_on_HotStuff_2.Creator[31].out[0].channel disabled false
attr mutable ""
par Delegate_selection_on_HotStuff_2.Creator[31].out[0].channel delay 0.3s
attr mutable ""
attr unit s
par Delegate_selection_on_HotStuff_2.Creator[31].out[0].channel datarate 5e+06bps
attr mutable ""
attr unit bps
par Delegate_selection_on_HotStuff_2.Creator[31].out[0].channel ber 0
attr mutable ""
par Delegate_selection_on_HotStuff_2.Creator[31].out[0].channel per 0
attr mutable ""
par Delegate_selection_on_HotStuff_2.Creator[31].out[0].channel displayAsTooltip false
par Delegate_selection_on_HotStuff_2.Creator[31].out[0].channel thruputDisplayFormat "\"\""
par Delegate_selection_on_HotStuff_2.Concentrator[0].out[31].channel typename "\"delegate_selection_on_hotstuff_2.Delegate_selection_on_HotStuff_2.ltedown\""
par Delegate_selection_on_HotStuff_2.Concentrator[0].out[31].channel disabled false
attr mutable ""
par Delegate_selection_on_HotStuff_2.Concentrator[0].out[31].channel delay 0.3s
attr mutable ""
attr unit s
par Delegate_selection_on_HotStuff_2.Concentrator[0].out[31].channel datarate 5e+06bps
attr mutable ""
attr unit bps
par Delegate_selection_on_HotStuff_2.Concentrator[0].out[31].channel ber 0
attr mutable ""
par Delegate_selection_on_HotStuff_2.Concentrator[0].out[31].channel per 0
attr mutable ""
par Delegate_selection_on_HotStuff_2.Concentrator[0].out[31].channel displayAsTooltip false
par Delegate_selection_on_HotStuff_2.Concentrator[0].out[31].channel thruputDisplayFormat "\"\""
par Delegate_selection_on_HotStuff_2.Creator[32].out[0].channel typename "\"delegate_selection_on_hotstuff_2.Delegate_selection_on_HotStuff_2.lteup\""
par Delegate_selection_on_HotStuff_2.Creator[32].out[0].channel disabled false
attr mutable ""
par Delegate_selection_on_HotStuff_2.Creator[32].out[0].channel delay 0.3s
attr mutable ""
attr unit s
par Delegate_selection_on_HotStuff_2.Creator[32].out[0].channel datarate 5e+06bps
attr mutable ""
attr unit bps
par Delegate_selection_on_HotStuff_2.Creator[32].out[0].channel ber 0
attr mutable ""
par Delegate_selection_on_HotStuff_2.Creator[32].out[0].channel per 0
attr mutable ""
par Delegate_selection_on_HotStuff_2.Creator[32].out[0].channel displayAsTooltip false
par Delegate_selection_on_HotStuff_2.Creator[32].out[0].channel thruputDisplayFormat "\"\""
par Delegate_selection_on_HotStuff_2.Concentrator[0].out[32].channel typename "\"delegate_selection_on_hotstuff_2.Delegate_selection_on_HotStuff_2.ltedown\""
par Delegate_selection_on_HotStuff_2.Concentrator[0].out[32].channel disabled false
attr mutable ""
par Delegate_selection_on_HotStuff_2.Concentrator[0].out[32].channel delay 0.3s
attr mutable ""
attr unit s
par Delegate_selection_on_HotStuff_2.Concentrator[0].out[32].channel datarate 5e+06bps
attr mutable ""
attr unit bps
par Delegate_selection_on_HotStuff_2.Concentrator[0].out[32].channel ber 0
attr mutable ""
par Delegate_selection_on_HotStuff_2.Concentrator[0].out[32].channel per 0
attr mutable ""
par Delegate_selection_on_HotStuff_2.Concentrator[0].out[32].channel displayAsTooltip false
par Delegate_selection_on_HotStuff_2.Concentrator[0].out[32].channel thruputDisplayFormat "\"\""
par Delegate_selection_on_HotStuff_2.Creator[33].out[0].channel typename "\"delegate_selection_on_hotstuff_2.Delegate_selection_on_HotStuff_2.lteup\""
par Delegate_selection_on_HotStuff_2.Creator[33].out[0].channel disabled false
attr mutable ""
par Delegate_selection_on_HotStuff_2.Creator[33].out[0].channel delay 0.3s
attr mutable ""
attr unit s
par Delegate_selection_on_HotStuff_2.Creator[33].out[0].channel datarate 5e+06bps
attr mutable ""
attr unit bps
par Delegate_selection_on_HotStuff_2.Creator[33].out[0].channel ber 0
attr mutable ""
par Delegate_selection_on_HotStuff_2.Creator[33].out[0].channel per 0
attr mutable ""
par Delegate_selection_on_HotStuff_2.Creator[33].out[0].channel displayAsTooltip false
par Delegate_selection_on_HotStuff_2.Creator[33].out[0].channel thruputDisplayFormat "\"\""
par Delegate_selection_on_HotStuff_2.Concentrator[0].out[33].channel typename "\"delegate_selection_on_hotstuff_2.Delegate_selection_on_HotStuff_2.ltedown\""
par Delegate_selection_on_HotStuff_2.Concentrator[0].out[33].channel disabled false
attr mutable ""
par Delegate_selection_on_HotStuff_2.Concentrator[0].out[33].channel delay 0.3s
attr mutable ""
attr unit s
par Delegate_selection_on_HotStuff_2.Concentrator[0].out[33].channel datarate 5e+06bps
attr mutable ""
attr unit bps
par Delegate_selection_on_HotStuff_2.Concentrator[0].out[33].channel ber 0
attr mutable ""
par Delegate_selection_on_HotStuff_2.Concentrator[0].out[33].channel per 0
attr mutable ""
par Delegate_selection_on_HotStuff_2.Concentrator[0].out[33].channel displayAsTooltip false
par Delegate_selection_on_HotStuff_2.Concentrator[0].out[33].channel thruputDisplayFormat "\"\""
par Delegate_selection_on_HotStuff_2.Creator[34].out[0].channel typename "\"delegate_selection_on_hotstuff_2.Delegate_selection_on_HotStuff_2.lteup\""
par Delegate_selection_on_HotStuff_2.Creator[34].out[0].channel disabled false
attr mutable ""
par Delegate_selection_on_HotStuff_2.Creator[34].out[0].channel delay 0.3s
attr mutable ""
attr unit s
par Delegate_selection_on_HotStuff_2.Creator[34].out[0].channel datarate 5e+06bps
attr mutable ""
attr unit bps
par Delegate_selection_on_HotStuff_2.Creator[34].out[0].channel ber 0
attr mutable ""
par Delegate_selection_on_HotStuff_2.Creator[34].out[0].channel per 0
attr mutable ""
par Delegate_selection_on_HotStuff_2.Creator[34].out[0].channel displayAsTooltip false
par Delegate_selection_on_HotStuff_2.Creator[34].out[0].channel thruputDisplayFormat "\"\""
par Delegate_selection_on_HotStuff_2.Concentrator[0].out[34].channel typename "\"delegate_selection_on_hotstuff_2.Delegate_selection_on_HotStuff_2.ltedown\""
par Delegate_selection_on_HotStuff_2.Concentrator[0].out[34].channel disabled false
attr mutable ""
par Delegate_selection_on_HotStuff_2.Concentrator[0].out[34].channel delay 0.3s
attr mutable ""
attr unit s
par Delegate_selection_on_HotStuff_2.Concentrator[0].out[34].channel datarate 5e+06bps
attr mutable ""
attr unit bps
par Delegate_selection_on_HotStuff_2.Concentrator[0].out[34].channel ber 0
attr mutable ""
par Delegate_selection_on_HotStuff_2.Concentrator[0].out[34].channel per 0
attr mutable ""
par Delegate_selection_on_HotStuff_2.Concentrator[0].out[34].channel displayAsTooltip false
par Delegate_selection_on_HotStuff_2.Concentrator[0].out[34].channel thruputDisplayFormat "\"\""
par Delegate_selection_on_HotStuff_2.Creator[35].out[0].channel typename "\"delegate_selection_on_hotstuff_2.Delegate_selection_on_HotStuff_2.lteup\""
par Delegate_selection_on_HotStuff_2.Creator[35].out[0].channel disabled false
attr mutable ""
par Delegate_selection_on_HotStuff_2.Creator[35].out[0].channel delay 0.3s
attr mutable ""
attr unit s
par Delegate_selection_on_HotStuff_2.Creator[35].out[0].channel datarate 5e+06bps
attr mutable ""
attr unit bps
par Delegate_selection_on_HotStuff_2.Creator[35].out[0].channel ber 0
attr mutable ""
par Delegate_selection_on_HotStuff_2.Creator[35].out[0].channel per 0
attr mutable ""
par Delegate_selection_on_HotStuff_2.Creator[35].out[0].channel displayAsTooltip false
par Delegate_selection_on_HotStuff_2.Creator[35].out[0].channel thruputDisplayFormat "\"\""
par Delegate_selection_on_HotStuff_2.Concentrator[0].out[35].channel typename "\"delegate_selection_on_hotstuff_2.Delegate_selection_on_HotStuff_2.ltedown\""
par Delegate_selection_on_HotStuff_2.Concentrator[0].out[35].channel disabled false
attr mutable ""
par Delegate_selection_on_HotStuff_2.Concentrator[0].out[35].channel delay 0.3s
attr mutable ""
attr unit s
par Delegate_selection_on_HotStuff_2.Concentrator[0].out[35].channel datarate 5e+06bps
attr mutable ""
attr unit bps
par Delegate_selection_on_HotStuff_2.Concentrator[0].out[35].channel ber 0
attr mutable ""
par Delegate_selection_on_HotStuff_2.Concentrator[0].out[35].channel per 0
attr mutable ""
par Delegate_selection_on_HotStuff_2.Concentrator[0].out[35].channel displayAsTooltip false
par Delegate_selection_on_HotStuff_2.Concentrator[0].out[35].channel thruputDisplayFormat "\"\""
par Delegate_selection_on_HotStuff_2.Creator[36].out[0].channel typename "\"delegate_selection_on_hotstuff_2.Delegate_selection_on_HotStuff_2.lteup\""
par Delegate_selection_on_HotStuff_2.Creator[36].out[0].channel disabled false
attr mutable ""
par Delegate_selection_on_HotStuff_2.Creator[36].out[0].channel delay 0.3s
attr mutable ""
attr unit s
par Delegate_selection_on_HotStuff_2.Creator[36].out[0].channel datarate 5e+06bps
attr mutable ""
attr unit bps
par Delegate_selection_on_HotStuff_2.Creator[36].out[0].channel ber 0
attr mutable ""
par Delegate_selection_on_HotStuff_2.Creator[36].out[0].channel per 0
attr mutable ""
par Delegate_selection_on_HotStuff_2.Creator[36].out[0].channel displayAsTooltip false
par Delegate_selection_on_HotStuff_2.Creator[36].out[0].channel thruputDisplayFormat "\"\""
par Delegate_selection_on_HotStuff_2.Concentrator[0].out[36].channel typename "\"delegate_selection_on_hotstuff_2.Delegate_selection_on_HotStuff_2.ltedown\""
par Delegate_selection_on_HotStuff_2.Concentrator[0].out[36].channel disabled false
attr mutable ""
par Delegate_selection_on_HotStuff_2.Concentrator[0].out[36].channel delay 0.3s
attr mutable ""
attr unit s
par Delegate_selection_on_HotStuff_2.Concentrator[0].out[36].channel datarate 5e+06bps
attr mutable ""
attr unit bps
par Delegate_selection_on_HotStuff_2.Concentrator[0].out[36].channel ber 0
attr mutable ""
par Delegate_selection_on_HotStuff_2.Concentrator[0].out[36].channel per 0
attr mutable ""
par Delegate_selection_on_HotStuff_2.Concentrator[0].out[36].channel displayAsTooltip false
par Delegate_selection_on_HotStuff_2.Concentrator[0].out[36].channel thruputDisplayFormat "\"\""
par Delegate_selection_on_HotStuff_2.Creator[37].out[0].channel typename "\"delegate_selection_on_hotstuff_2.Delegate_selection_on_HotStuff_2.lteup\""
par Delegate_selection_on_HotStuff_2.Creator[37].out[0].channel disabled false
attr mutable ""
par Delegate_selection_on_HotStuff_2.Creator[37].out[0].channel delay 0.3s
attr mutable ""
attr unit s
par Delegate_selection_on_HotStuff_2.Creator[37].out[0].channel datarate 5e+06bps
attr mutable ""
attr unit bps
par Delegate_selection_on_HotStuff_2.Creator[37].out[0].channel ber 0
attr mutable ""
par Delegate_selection_on_HotStuff_2.Creator[37].out[0].channel per 0
attr mutable ""
par Delegate_selection_on_HotStuff_2.Creator[37].out[0].channel displayAsTooltip false
par Delegate_selection_on_HotStuff_2.Creator[37].out[0].channel thruputDisplayFormat "\"\""
par Delegate_selection_on_HotStuff_2.Concentrator[0].out[37].channel typename "\"delegate_selection_on_hotstuff_2.Delegate_selection_on_HotStuff_2.ltedown\""
par Delegate_selection_on_HotStuff_2.Concentrator[0].out[37].channel disabled false
attr mutable ""
par Delegate_selection_on_HotStuff_2.Concentrator[0].out[37].channel delay 0.3s
attr mutable ""
attr unit s
par Delegate_selection_on_HotStuff_2.Concentrator[0].out[37].channel datarate 5e+06bps
attr mutable ""
attr unit bps
par Delegate_selection_on_HotStuff_2.Concentrator[0].out[37].channel ber 0
attr mutable ""
par Delegate_selection_on_HotStuff_2.Concentrator[0].out[37].channel per 0
attr mutable ""
par Delegate_selection_on_HotStuff_2.Concentrator[0].out[37].channel displayAsTooltip false
par Delegate_selection_on_HotStuff_2.Concentrator[0].out[37].channel thruputDisplayFormat "\"\""
par Delegate_selection_on_HotStuff_2.Creator[38].out[0].channel typename "\"delegate_selection_on_hotstuff_2.Delegate_selection_on_HotStuff_2.lteup\""
par Delegate_selection_on_HotStuff_2.Creator[38].out[0].channel disabled false
attr mutable ""
par Delegate_selection_on_HotStuff_2.Creator[38].out[0].channel delay 0.3s
attr mutable ""
attr unit s
par Delegate_selection_on_HotStuff_2.Creator[38].out[0].channel datarate 5e+06bps
attr mutable ""
attr unit bps
par Delegate_selection_on_HotStuff_2.Creator[38].out[0].channel ber 0
attr mutable ""
par Delegate_selection_on_HotStuff_2.Creator[38].out[0].channel per 0
attr mutable ""
par Delegate_selection_on_HotStuff_2.Creator[38].out[0].channel displayAsTooltip false
par Delegate_selection_on_HotStuff_2.Creator[38].out[0].channel thruputDisplayFormat "\"\""
par Delegate_selection_on_HotStuff_2.Concentrator[0].out[38].channel typename "\"delegate_selection_on_hotstuff_2.Delegate_selection_on_HotStuff_2.ltedown\""
par Delegate_selection_on_HotStuff_2.Concentrator[0].out[38].channel disabled false
attr mutable ""
par Delegate_selection_on_HotStuff_2.Concentrator[0].out[38].channel delay 0.3s
attr mutable ""
attr unit s
par Delegate_selection_on_HotStuff_2.Concentrator[0].out[38].channel datarate 5e+06bps
attr mutable ""
attr unit bps
par Delegate_selection_on_HotStuff_2.Concentrator[0].out[38].channel ber 0
attr mutable ""
par Delegate_selection_on_HotStuff_2.Concentrator[0].out[38].channel per 0
attr mutable ""
par Delegate_selection_on_HotStuff_2.Concentrator[0].out[38].channel displayAsTooltip false
par Delegate_selection_on_HotStuff_2.Concentrator[0].out[38].channel thruputDisplayFormat "\"\""
par Delegate_selection_on_HotStuff_2.Creator[39].out[0].channel typename "\"delegate_selection_on_hotstuff_2.Delegate_selection_on_HotStuff_2.lteup\""
par Delegate_selection_on_HotStuff_2.Creator[39].out[0].channel disabled false
attr mutable ""
par Delegate_selection_on_HotStuff_2.Creator[39].out[0].channel delay 0.3s
attr mutable ""
attr unit s
par Delegate_selection_on_HotStuff_2.Creator[39].out[0].channel datarate 5e+06bps
attr mutable ""
attr unit bps
par Delegate_selection_on_HotStuff_2.Creator[39].out[0].channel ber 0
attr mutable ""
par Delegate_selection_on_HotStuff_2.Creator[39].out[0].channel per 0
attr mutable ""
par Delegate_selection_on_HotStuff_2.Creator[39].out[0].channel displayAsTooltip false
par Delegate_selection_on_HotStuff_2.Creator[39].out[0].channel thruputDisplayFormat "\"\""
par Delegate_selection_on_HotStuff_2.Concentrator[0].out[39].channel typename "\"delegate_selection_on_hotstuff_2.Delegate_selection_on_HotStuff_2.ltedown\""
par Delegate_selection_on_HotStuff_2.Concentrator[0].out[39].channel disabled false
attr mutable ""
par Delegate_selection_on_HotStuff_2.Concentrator[0].out[39].channel delay 0.3s
attr mutable ""
attr unit s
par Delegate_selection_on_HotStuff_2.Concentrator[0].out[39].channel datarate 5e+06bps
attr mutable ""
attr unit bps
par Delegate_selection_on_HotStuff_2.Concentrator[0].out[39].channel ber 0
attr mutable ""
par Delegate_selection_on_HotStuff_2.Concentrator[0].out[39].channel per 0
attr mutable ""
par Delegate_selection_on_HotStuff_2.Concentrator[0].out[39].channel displayAsTooltip false
par Delegate_selection_on_HotStuff_2.Concentrator[0].out[39].channel thruputDisplayFormat "\"\""
par Delegate_selection_on_HotStuff_2.Creator[40].out[0].channel typename "\"delegate_selection_on_hotstuff_2.Delegate_selection_on_HotStuff_2.lteup\""
par Delegate_selection_on_HotStuff_2.Creator[40].out[0].channel disabled false
attr mutable ""
par Delegate_selection_on_HotStuff_2.Creator[40].out[0].channel delay 0.3s
attr mutable ""
attr unit s
par Delegate_selection_on_HotStuff_2.Creator[40].out[0].channel datarate 5e+06bps
attr mutable ""
attr unit bps
par Delegate_selection_on_HotStuff_2.Creator[40].out[0].channel ber 0
attr mutable ""
par Delegate_selection_on_HotStuff_2.Creator[40].out[0].channel per 0
attr mutable ""
par Delegate_selection_on_HotStuff_2.Creator[40].out[0].channel displayAsTooltip false
par Delegate_selection_on_HotStuff_2.Creator[40].out[0].channel thruputDisplayFormat "\"\""
par Delegate_selection_on_HotStuff_2.Concentrator[0].out[40].channel typename "\"delegate_selection_on_hotstuff_2.Delegate_selection_on_HotStuff_2.ltedown\""
par Delegate_selection_on_HotStuff_2.Concentrator[0].out[40].channel disabled false
attr mutable ""
par Delegate_selection_on_HotStuff_2.Concentrator[0].out[40].channel delay 0.3s
attr mutable ""
attr unit s
par Delegate_selection_on_HotStuff_2.Concentrator[0].out[40].channel datarate 5e+06bps
attr mutable ""
attr unit bps
par Delegate_selection_on_HotStuff_2.Concentrator[0].out[40].channel ber 0
attr mutable ""
par Delegate_selection_on_HotStuff_2.Concentrator[0].out[40].channel per 0
attr mutable ""
par Delegate_selection_on_HotStuff_2.Concentrator[0].out[40].channel displayAsTooltip false
par Delegate_selection_on_HotStuff_2.Concentrator[0].out[40].channel thruputDisplayFormat "\"\""
par Delegate_selection_on_HotStuff_2.Creator[41].out[0].channel typename "\"delegate_selection_on_hotstuff_2.Delegate_selection_on_HotStuff_2.lteup\""
par Delegate_selection_on_HotStuff_2.Creator[41].out[0].channel disabled false
attr mutable ""
par Delegate_selection_on_HotStuff_2.Creator[41].out[0].channel delay 0.3s
attr mutable ""
attr unit s
par Delegate_selection_on_HotStuff_2.Creator[41].out[0].channel datarate 5e+06bps
attr mutable ""
attr unit bps
par Delegate_selection_on_HotStuff_2.Creator[41].out[0].channel ber 0
attr mutable ""
par Delegate_selection_on_HotStuff_2.Creator[41].out[0].channel per 0
attr mutable ""
par Delegate_selection_on_HotStuff_2.Creator[41].out[0].channel displayAsTooltip false
par Delegate_selection_on_HotStuff_2.Creator[41].out[0].channel thruputDisplayFormat "\"\""
par Delegate_selection_on_HotStuff_2.Concentrator[0].out[41].channel typename "\"delegate_selection_on_hotstuff_2.Delegate_selection_on_HotStuff_2.ltedown\""
par Delegate_selection_on_HotStuff_2.Concentrator[0].out[41].channel disabled false
attr mutable ""
par Delegate_selection_on_HotStuff_2.Concentrator[0].out[41].channel delay 0.3s
attr mutable ""
attr unit s
par Delegate_selection_on_HotStuff_2.Concentrator[0].out[41].channel datarate 5e+06bps
attr mutable ""
attr unit bps
par Delegate_selection_on_HotStuff_2.Concentrator[0].out[41].channel ber 0
attr mutable ""
par Delegate_selection_on_HotStuff_2.Concentrator[0].out[41].channel per 0
attr mutable ""
par Delegate_selection_on_HotStuff_2.Concentrator[0].out[41].channel displayAsTooltip false
par Delegate_selection_on_HotStuff_2.Concentrator[0].out[41].channel thruputDisplayFormat "\"\""
par Delegate_selection_on_HotStuff_2.Creator[42].out[0].channel typename "\"delegate_selection_on_hotstuff_2.Delegate_selection_on_HotStuff_2.lteup\""
par Delegate_selection_on_HotStuff_2.Creator[42].out[0].channel disabled false
attr mutable ""
par Delegate_selection_on_HotStuff_2.Creator[42].out[0].channel delay 0.3s
attr mutable ""
attr unit s
par Delegate_selection_on_HotStuff_2.Creator[42].out[0].channel datarate 5e+06bps
attr mutable ""
attr unit bps
par Delegate_selection_on_HotStuff_2.Creator[42].out[0].channel ber 0
attr mutable ""
par Delegate_selection_on_HotStuff_2.Creator[42].out[0].channel per 0
attr mutable ""
par Delegate_selection_on_HotStuff_2.Creator[42].out[0].channel displayAsTooltip false
par Delegate_selection_on_HotStuff_2.Creator[42].out[0].channel thruputDisplayFormat "\"\""
par Delegate_selection_on_HotStuff_2.Concentrator[0].out[42].channel typename "\"delegate_selection_on_hotstuff_2.Delegate_selection_on_HotStuff_2.ltedown\""
par Delegate_selection_on_HotStuff_2.Concentrator[0].out[42].channel disabled false
attr mutable ""
par Delegate_selection_on_HotStuff_2.Concentrator[0].out[42].channel delay 0.3s
attr mutable ""
attr unit s
par Delegate_selection_on_HotStuff_2.Concentrator[0].out[42].channel datarate 5e+06bps
attr mutable ""
attr unit bps
par Delegate_selection_on_HotStuff_2.Concentrator[0].out[42].channel ber 0
attr mutable ""
par Delegate_selection_on_HotStuff_2.Concentrator[0].out[42].channel per 0
attr mutable ""
par Delegate_selection_on_HotStuff_2.Concentrator[0].out[42].channel displayAsTooltip false
par Delegate_selection_on_HotStuff_2.Concentrator[0].out[42].channel thruputDisplayFormat "\"\""
par Delegate_selection_on_HotStuff_2.Creator[43].out[0].channel typename "\"delegate_selection_on_hotstuff_2.Delegate_selection_on_HotStuff_2.lteup\""
par Delegate_selection_on_HotStuff_2.Creator[43].out[0].channel disabled false
attr mutable ""
par Delegate_selection_on_HotStuff_2.Creator[43].out[0].channel delay 0.3s
attr mutable ""
attr unit s
par Delegate_selection_on_HotStuff_2.Creator[43].out[0].channel datarate 5e+06bps
attr mutable ""
attr unit bps
par Delegate_selection_on_HotStuff_2.Creator[43].out[0].channel ber 0
attr mutable ""
par Delegate_selection_on_HotStuff_2.Creator[43].out[0].channel per 0
attr mutable ""
par Delegate_selection_on_HotStuff_2.Creator[43].out[0].channel displayAsTooltip false
par Delegate_selection_on_HotStuff_2.Creator[43].out[0].channel thruputDisplayFormat "\"\""
par Delegate_selection_on_HotStuff_2.Concentrator[0].out[43].channel typename "\"delegate_selection_on_hotstuff_2.Delegate_selection_on_HotStuff_2.ltedown\""
par Delegate_selection_on_HotStuff_2.Concentrator[0].out[43].channel disabled false
attr mutable ""
par Delegate_selection_on_HotStuff_2.Concentrator[0].out[43].channel delay 0.3s
attr mutable ""
attr unit s
par Delegate_selection_on_HotStuff_2.Concentrator[0].out[43].channel datarate 5e+06bps
attr mutable ""
attr unit bps
par Delegate_selection_on_HotStuff_2.Concentrator[0].out[43].channel ber 0
attr mutable ""
par Delegate_selection_on_HotStuff_2.Concentrator[0].out[43].channel per 0
attr mutable ""
par Delegate_selection_on_HotStuff_2.Concentrator[0].out[43].channel displayAsTooltip false
par Delegate_selection_on_HotStuff_2.Concentrator[0].out[43].channel thruputDisplayFormat "\"\""
par Delegate_selection_on_HotStuff_2.Creator[44].out[0].channel typename "\"delegate_selection_on_hotstuff_2.Delegate_selection_on_HotStuff_2.lteup\""
par Delegate_selection_on_HotStuff_2.Creator[44].out[0].channel disabled false
attr mutable ""
par Delegate_selection_on_HotStuff_2.Creator[44].out[0].channel delay 0.3s
attr mutable ""
attr unit s
par Delegate_selection_on_HotStuff_2.Creator[44].out[0].channel datarate 5e+06bps
attr mutable ""
attr unit bps
par Delegate_selection_on_HotStuff_2.Creator[44].out[0].channel ber 0
attr mutable ""
par Delegate_selection_on_HotStuff_2.Creator[44].out[0].channel per 0
attr mutable ""
par Delegate_selection_on_HotStuff_2.Creator[44].out[0].channel displayAsTooltip false
par Delegate_selection_on_HotStuff_2.Creator[44].out[0].channel thruputDisplayFormat "\"\""
par Delegate_selection_on_HotStuff_2.Concentrator[0].out[44].channel typename "\"delegate_selection_on_hotstuff_2.Delegate_selection_on_HotStuff_2.ltedown\""
par Delegate_selection_on_HotStuff_2.Concentrator[0].out[44].channel disabled false
attr mutable ""
par Delegate_selection_on_HotStuff_2.Concentrator[0].out[44].channel delay 0.3s
attr mutable ""
attr unit s
par Delegate_selection_on_HotStuff_2.Concentrator[0].out[44].channel datarate 5e+06bps
attr mutable ""
attr unit bps
par Delegate_selection_on_HotStuff_2.Concentrator[0].out[44].channel ber 0
attr mutable ""
par Delegate_selection_on_HotStuff_2.Concentrator[0].out[44].channel per 0
attr mutable ""
par Delegate_selection_on_HotStuff_2.Concentrator[0].out[44].channel displayAsTooltip false
par Delegate_selection_on_HotStuff_2.Concentrator[0].out[44].channel thruputDisplayFormat "\"\""
par Delegate_selection_on_HotStuff_2.Creator[45].out[0].channel typename "\"delegate_selection_on_hotstuff_2.Delegate_selection_on_HotStuff_2.lteup\""
par Delegate_selection_on_HotStuff_2.Creator[45].out[0].channel disabled false
attr mutable ""
par Delegate_selection_on_HotStuff_2.Creator[45].out[0].channel delay 0.3s
attr mutable ""
attr unit s
par Delegate_selection_on_HotStuff_2.Creator[45].out[0].channel datarate 5e+06bps
attr mutable ""
attr unit bps
par Delegate_selection_on_HotStuff_2.Creator[45].out[0].channel ber 0
attr mutable ""
par Delegate_selection_on_HotStuff_2.Creator[45].out[0].channel per 0
attr mutable ""
par Delegate_selection_on_HotStuff_2.Creator[45].out[0].channel displayAsTooltip false
par Delegate_selection_on_HotStuff_2.Creator[45].out[0].channel thruputDisplayFormat "\"\""
par Delegate_selection_on_HotStuff_2.Concentrator[0].out[45].channel typename "\"delegate_selection_on_hotstuff_2.Delegate_selection_on_HotStuff_2.ltedown\""
par Delegate_selection_on_HotStuff_2.Concentrator[0].out[45].channel disabled false
attr mutable ""
par Delegate_selection_on_HotStuff_2.Concentrator[0].out[45].channel delay 0.3s
attr mutable ""
attr unit s
par Delegate_selection_on_HotStuff_2.Concentrator[0].out[45].channel datarate 5e+06bps
attr mutable ""
attr unit bps
par Delegate_selection_on_HotStuff_2.Concentrator[0].out[45].channel ber 0
attr mutable ""
par Delegate_selection_on_HotStuff_2.Concentrator[0].out[45].channel per 0
attr mutable ""
par Delegate_selection_on_HotStuff_2.Concentrator[0].out[45].channel displayAsTooltip false
par Delegate_selection_on_HotStuff_2.Concentrator[0].out[45].channel thruputDisplayFormat "\"\""
par Delegate_selection_on_HotStuff_2.Creator[46].out[0].channel typename "\"delegate_selection_on_hotstuff_2.Delegate_selection_on_HotStuff_2.lteup\""
par Delegate_selection_on_HotStuff_2.Creator[46].out[0].channel disabled false
attr mutable ""
par Delegate_selection_on_HotStuff_2.Creator[46].out[0].channel delay 0.3s
attr mutable ""
attr unit s
par Delegate_selection_on_HotStuff_2.Creator[46].out[0].channel datarate 5e+06bps
attr mutable ""
attr unit bps
par Delegate_selection_on_HotStuff_2.Creator[46].out[0].channel ber 0
attr mutable ""
par Delegate_selection_on_HotStuff_2.Creator[46].out[0].channel per 0
attr mutable ""
par Delegate_selection_on_HotStuff_2.Creator[46].out[0].channel displayAsTooltip false
par Delegate_selection_on_HotStuff_2.Creator[46].out[0].channel thruputDisplayFormat "\"\""
par Delegate_selection_on_HotStuff_2.Concentrator[0].out[46].channel typename "\"delegate_selection_on_hotstuff_2.Delegate_selection_on_HotStuff_2.ltedown\""
par Delegate_selection_on_HotStuff_2.Concentrator[0].out[46].channel disabled false
attr mutable ""
par Delegate_selection_on_HotStuff_2.Concentrator[0].out[46].channel delay 0.3s
attr mutable ""
attr unit s
par Delegate_selection_on_HotStuff_2.Concentrator[0].out[46].channel datarate 5e+06bps
attr mutable ""
attr unit bps
par Delegate_selection_on_HotStuff_2.Concentrator[0].out[46].channel ber 0
attr mutable ""
par Delegate_selection_on_HotStuff_2.Concentrator[0].out[46].channel per 0
attr mutable ""
par Delegate_selection_on_HotStuff_2.Concentrator[0].out[46].channel displayAsTooltip false
par Delegate_selection_on_HotStuff_2.Concentrator[0].out[46].channel thruputDisplayFormat "\"\""
par Delegate_selection_on_HotStuff_2.Creator[47].out[0].channel typename "\"delegate_selection_on_hotstuff_2.Delegate_selection_on_HotStuff_2.lteup\""
par Delegate_selection_on_HotStuff_2.Creator[47].out[0].channel disabled false
attr mutable ""
par Delegate_selection_on_HotStuff_2.Creator[47].out[0].channel delay 0.3s
attr mutable ""
attr unit s
par Delegate_selection_on_HotStuff_2.Creator[47].out[0].channel datarate 5e+06bps
attr mutable ""
attr unit bps
par Delegate_selection_on_HotStuff_2.Creator[47].out[0].channel ber 0
attr mutable ""
par Delegate_selection_on_HotStuff_2.Creator[47].out[0].channel per 0
attr mutable ""
par Delegate_selection_on_HotStuff_2.Creator[47].out[0].channel displayAsTooltip false
par Delegate_selection_on_HotStuff_2.Creator[47].out[0].channel thruputDisplayFormat "\"\""
par Delegate_selection_on_HotStuff_2.Concentrator[0].out[47].channel typename "\"delegate_selection_on_hotstuff_2.Delegate_selection_on_HotStuff_2.ltedown\""
par Delegate_selection_on_HotStuff_2.Concentrator[0].out[47].channel disabled false
attr mutable ""
par Delegate_selection_on_HotStuff_2.Concentrator[0].out[47].channel delay 0.3s
attr mutable ""
attr unit s
par Delegate_selection_on_HotStuff_2.Concentrator[0].out[47].channel datarate 5e+06bps
attr mutable ""
attr unit bps
[...]
field min 240
field max 360
field sum 3320
field sqrsum 1115200
bin	-inf	0
bin	210	0
bin	212	0
bin	214	0
bin	216	0
bin	218	0
bin	220	0
bin	222	0
bin	224	0
bin	226	0
bin	228	0
bin	230	0
bin	232	0
bin	234	0
bin	236	0
bin	238	0
bin	240	1
bin	242	0
bin	244	0
bin	246	0
bin	248	0
bin	250	0
bin	252	0
bin	254	0
bin	256	0
bin	258	0
bin	260	0
bin	262	0
bin	264	0
bin	266	0
bin	268	0
bin	270	0
bin	272	0
bin	274	0
bin	276	0
bin	278	0
bin	280	0
bin	282	0
bin	284	0
bin	286	0
bin	288	0
bin	290	0
bin	292	0
bin	294	0
bin	296	0
bin	298	0
bin	300	0
bin	302	0
bin	304	0
bin	306	0
bin	308	0
bin	310	0
bin	312	0
bin	314	0
bin	316	0
bin	318	0
bin	320	4
bin	322	0
bin	324	0
bin	326	0
bin	328	0
bin	330	0
bin	332	0
bin	334	0
bin	336	0
bin	338	0
bin	340	0
bin	342	0
bin	344	0
bin	346	0
bin	348	0
bin	350	0
bin	352	0
bin	354	0
bin	356	0
bin	358	0
bin	360	5
bin	362	0
bin	364	0
bin	366	0
bin	368	0
bin	370	0
bin	372	0
bin	374	0
bin	376	0
bin	378	0
bin	380	0
bin	382	0
bin	384	0
bin	386	0
bin	388	0
bin	390	0
par Delegate_selection_on_HotStuff_2.Creator[993] typename "\"delegate_selection_on_hotstuff_2.Delegate_selection_on_HotStuff_2.Create\""
statistic Delegate_selection_on_HotStuff_2.Creator[993] "create time"
field count 83
field mean 11.65509997494
field stddev 0.82213434755417
field min 9.61729152
field max 15.78225536
field sum 967.37329792
field sqrsum 11330.25670095
bin	-inf	0
bin	8.2	0
bin	8.3	0
bin	8.4	0
bin	8.5	0
bin	8.6	0
bin	8.7	0
bin	8.8	0
bin	8.9	0
bin	9	0
bin	9.1	0
bin	9.2	0
bin	9.3	0
bin	9.4	0
bin	9.5	0
bin	9.6	1
bin	9.7	7
bin	9.8	0
bin	9.9	0
bin	10	0
bin	10.1	0
bin	10.2	0
bin	10.3	0
bin	10.4	0
bin	10.5	0
bin	10.6	3
bin	10.7	0
bin	10.8	0
bin	10.9	0
bin	11	0
bin	11.1	0
bin	11.2	0
bin	11.3	0
bin	11.4	0
bin	11.5	0
bin	11.6	10
bin	11.7	4
bin	11.8	51
bin	11.9	0
bin	12	0
bin	12.1	0
bin	12.2	0
bin	12.3	0
bin	12.4	3
bin	12.5	2
bin	12.6	0
bin	12.7	0
bin	12.8	0
bin	12.9	1
bin	13	0
bin	13.1	0
bin	13.2	0
bin	13.3	0
bin	13.4	0
bin	13.5	0
bin	13.6	0
bin	13.7	0
bin	13.8	0
bin	13.9	0
bin	14	0
bin	14.1	0
bin	14.2	0
bin	14.3	0
bin	14.4	0
bin	14.5	0
bin	14.6	0
bin	14.7	0
bin	14.8	0
bin	14.9	0
bin	15	0
bin	15.1	0
bin	15.2	0
bin	15.3	0
bin	15.4	0
bin	15.5	0
bin	15.6	0
bin	15.7	1
bin	15.8	0
bin	15.9	0
bin	16	0
bin	16.1	0
bin	16.2	0
bin	16.3	0
bin	16.4	0
bin	16.5	0
bin	16.6	0
bin	16.7	0
bin	16.8	0
bin	16.9	0
bin	17	0
bin	17.1	0
bin	17.2	0
bin	17.3	0
statistic Delegate_selection_on_HotStuff_2.Creator[993] throughput
field count 10
field mean 332
field stddev 37.947331922021
field min 240
field max 360
field sum 3320
field sqrsum 1115200
bin	-inf	0
bin	210	0
bin	212	0
bin	214	0
bin	216	0
bin	218	0
bin	220	0
bin	222	0
bin	224	0
bin	226	0
bin	228	0
bin	230	0
bin	232	0
bin	234	0
bin	236	0
bin	238	0
bin	240	1
bin	242	0
bin	244	0
bin	246	0
bin	248	0
bin	250	0
bin	252	0
bin	254	0
bin	256	0
bin	258	0
bin	260	0
bin	262	0
bin	264	0
bin	266	0
bin	268	0
bin	270	0
bin	272	0
bin	274	0
bin	276	0
bin	278	0
bin	280	0
bin	282	0
bin	284	0
bin	286	0
bin	288	0
bin	290	0
bin	292	0
bin	294	0
bin	296	0
bin	298	0
bin	300	0
bin	302	0
bin	304	0
bin	306	0
bin	308	0
bin	310	0
bin	312	0
bin	314	0
bin	316	0
bin	318	0
bin	320	4
bin	322	0
bin	324	0
bin	326	0
bin	328	0
bin	330	0
bin	332	0
bin	334	0
bin	336	0
bin	338	0
bin	340	0
bin	342	0
bin	344	0
bin	346	0
bin	348	0
bin	350	0
bin	352	0
bin	354	0
bin	356	0
bin	358	0
bin	360	5
bin	362	0
bin	364	0
bin	366	0
bin	368	0
bin	370	0
bin	372	0
bin	374	0
bin	376	0
bin	378	0
bin	380	0
bin	382	0
bin	384	0
bin	386	0
bin	388	0
bin	390	0
par Delegate_selection_on_HotStuff_2.Creator[994] typename "\"delegate_selection_on_hotstuff_2.Delegate_selection_on_HotStuff_2.Create\""
statistic Delegate_selection_on_HotStuff_2.Creator[994] "create time"
field count 83
field mean 11.65509997494
field stddev 0.82213434755417
field min 9.61729152
field max 15.78225536
field sum 967.37329792
field sqrsum 11330.25670095
bin	-inf	0
bin	8.2	0
bin	8.3	0
bin	8.4	0
bin	8.5	0
bin	8.6	0
bin	8.7	0
bin	8.8	0
bin	8.9	0
bin	9	0
bin	9.1	0
bin	9.2	0
bin	9.3	0
bin	9.4	0
bin	9.5	0
bin	9.6	1
bin	9.7	7
bin	9.8	0
bin	9.9	0
bin	10	0
bin	10.1	0
bin	10.2	0
bin	10.3	0
bin	10.4	0
bin	10.5	0
bin	10.6	3
bin	10.7	0
bin	10.8	0
bin	10.9	0
bin	11	0
bin	11.1	0
bin	11.2	0
bin	11.3	0
bin	11.4	0
bin	11.5	0
bin	11.6	10
bin	11.7	4
bin	11.8	51
bin	11.9	0
bin	12	0
bin	12.1	0
bin	12.2	0
bin	12.3	0
bin	12.4	3
bin	12.5	2
bin	12.6	0
bin	12.7	0
bin	12.8	0
bin	12.9	1
bin	13	0
bin	13.1	0
bin	13.2	0
bin	13.3	0
bin	13.4	0
bin	13.5	0
bin	13.6	0
bin	13.7	0
bin	13.8	0
bin	13.9	0
bin	14	0
bin	14.1	0
bin	14.2	0
bin	14.3	0
bin	14.4	0
bin	14.5	0
bin	14.6	0
bin	14.7	0
bin	14.8	0
bin	14.9	0
bin	15	0
bin	15.1	0
bin	15.2	0
bin	15.3	0
bin	15.4	0
bin	15.5	0
bin	15.6	0
bin	15.7	1
bin	15.8	0
bin	15.9	0
bin	16	0
bin	16.1	0
bin	16.2	0
bin	16.3	0
bin	16.4	0
bin	16.5	0
bin	16.6	0
bin	16.7	0
bin	16.8	0
bin	16.9	0
bin	17	0
bin	17.1	0
bin	17.2	0
bin	17.3	0
statistic Delegate_selection_on_HotStuff_2.Creator[994] throughput
field count 10
field mean 332
field stddev 37.947331922021
field min 240
field max 360
field sum 3320
field sqrsum 1115200
bin	-inf	0
bin	210	0
bin	212	0
bin	214	0
bin	216	0
bin	218	0
bin	220	0
bin	222	0
bin	224	0
bin	226	0
bin	228	0
bin	230	0
bin	232	0
bin	234	0
bin	236	0
bin	238	0
bin	240	1
bin	242	0
bin	244	0
bin	246	0
bin	248	0
bin	250	0
bin	252	0
bin	254	0
bin	256	0
bin	258	0
bin	260	0
bin	262	0
bin	264	0
bin	266	0
bin	268	0
bin	270	0
bin	272	0
bin	274	0
bin	276	0
bin	278	0
bin	280	0
bin	282	0
bin	284	0
bin	286	0
bin	288	0
bin	290	0
bin	292	0
bin	294	0
bin	296	0
bin	298	0
bin	300	0
bin	302	0
bin	304	0
bin	306	0
bin	308	0
bin	310	0
bin	312	0
bin	314	0
bin	316	0
bin	318	0
bin	320	4
bin	322	0
bin	324	0
bin	326	0
bin	328	0
bin	330	0
bin	332	0
bin	334	0
bin	336	0
bin	338	0
bin	340	0
bin	342	0
bin	344	0
bin	346	0
bin	348	0
bin	350	0
bin	352	0
bin	354	0
bin	356	0
bin	358	0
bin	360	5
bin	362	0
bin	364	0
bin	366	0
bin	368	0
bin	370	0
bin	372	0
bin	374	0
bin	376	0
bin	378	0
bin	380	0
bin	382	0
bin	384	0
bin	386	0
bin	388	0
bin	390	0
par Delegate_selection_on_HotStuff_2.Creator[995] typename "\"delegate_selection_on_hotstuff_2.Delegate_selection_on_HotStuff_2.Create\""
statistic Delegate_selection_on_HotStuff_2.Creator[995] "create time"
field count 83
field mean 11.65509997494
field stddev 0.82213434755417
field min 9.61729152
field max 15.78225536
field sum 967.37329792
field sqrsum 11330.25670095
bin	-inf	0
bin	8.2	0
bin	8.3	0
bin	8.4	0
bin	8.5	0
bin	8.6	0
bin	8.7	0
bin	8.8	0
bin	8.9	0
bin	9	0
bin	9.1	0
bin	9.2	0
bin	9.3	0
bin	9.4	0
bin	9.5	0
bin	9.6	1
bin	9.7	7
bin	9.8	0
bin	9.9	0
bin	10	0
bin	10.1	0
bin	10.2	0
bin	10.3	0
bin	10.4	0
bin	10.5	0
bin	10.6	3
bin	10.7	0
bin	10.8	0
bin	10.9	0
bin	11	0
bin	11.1	0
bin	11.2	0
bin	11.3	0
bin	11.4	0
bin	11.5	0
bin	11.6	10
bin	11.7	4
bin	11.8	51
bin	11.9	0
bin	12	0
bin	12.1	0
bin	12.2	0
bin	12.3	0
bin	12.4	3
bin	12.5	2
bin	12.6	0
bin	12.7	0
bin	12.8	0
bin	12.9	1
bin	13	0
bin	13.1	0
bin	13.2	0
bin	13.3	0
bin	13.4	0
bin	13.5	0
bin	13.6	0
bin	13.7	0
bin	13.8	0
bin	13.9	0
bin	14	0
bin	14.1	0
bin	14.2	0
bin	14.3	0
bin	14.4	0
bin	14.5	0
bin	14.6	0
bin	14.7	0
bin	14.8	0
bin	14.9	0
bin	15	0
bin	15.1	0
bin	15.2	0
bin	15.3	0
bin	15.4	0
bin	15.5	0
bin	15.6	0
bin	15.7	1
bin	15.8	0
bin	15.9	0
bin	16	0
bin	16.1	0
bin	16.2	0
bin	16.3	0
bin	16.4	0
bin	16.5	0
bin	16.6	0
bin	16.7	0
bin	16.8	0
bin	16.9	0
bin	17	0
bin	17.1	0
bin	17.2	0
bin	17.3	0
statistic Delegate_selection_on_HotStuff_2.Creator[995] throughput
field count 10
field mean 332
field stddev 37.947331922021
field min 240
field max 360
field sum 3320
field sqrsum 1115200
bin	-inf	0
bin	210	0
bin	212	0
bin	214	0
bin	216	0
bin	218	0
bin	220	0
bin	222	0
bin	224	0
bin	226	0
bin	228	0
bin	230	0
bin	232	0
bin	234	0
bin	236	0
bin	238	0
bin	240	1
bin	242	0
bin	244	0
bin	246	0
bin	248	0
bin	250	0
bin	252	0
bin	254	0
bin	256	0
bin	258	0
bin	260	0
bin	262	0
bin	264	0
bin	266	0
bin	268	0
bin	270	0
bin	272	0
bin	274	0
bin	276	0
bin	278	0
bin	280	0
bin	282	0
bin	284	0
bin	286	0
bin	288	0
bin	290	0
bin	292	0
bin	294	0
bin	296	0
bin	298	0
bin	300	0
bin	302	0
bin	304	0
bin	306	0
bin	308	0
bin	310	0
bin	312	0
bin	314	0
bin	316	0
bin	318	0
bin	320	4
bin	322	0
bin	324	0
bin	326	0
bin	328	0
bin	330	0
bin	332	0
bin	334	0
bin	336	0
bin	338	0
bin	340	0
bin	342	0
bin	344	0
bin	346	0
bin	348	0
bin	350	0
bin	352	0
bin	354	0
bin	356	0
bin	358	0
bin	360	5
bin	362	0
bin	364	0
bin	366	0
bin	368	0
bin	370	0
bin	372	0
bin	374	0
bin	376	0
bin	378	0
bin	380	0
bin	382	0
bin	384	0
bin	386	0
bin	388	0
bin	390	0
par Delegate_selection_on_HotStuff_2.Creator[996] typename "\"delegate_selection_on_hotstuff_2.Delegate_selection_on_HotStuff_2.Create\""
statistic Delegate_selection_on_HotStuff_2.Creator[996] "create time"
field count 83
field mean 11.65509997494
field stddev 0.82213434755417
field min 9.61729152
field max 15.78225536
field sum 967.37329792
field sqrsum 11330.25670095
bin	-inf	0
bin	8.2	0
bin	8.3	0
bin	8.4	0
bin	8.5	0
bin	8.6	0
bin	8.7	0
bin	8.8	0
bin	8.9	0
bin	9	0
bin	9.1	0
bin	9.2	0
bin	9.3	0
bin	9.4	0
bin	9.5	0
bin	9.6	1
bin	9.7	7
bin	9.8	0
bin	9.9	0
bin	10	0
bin	10.1	0
bin	10.2	0
bin	10.3	0
bin	10.4	0
bin	10.5	0
bin	10.6	3
bin	10.7	0
bin	10.8	0
bin	10.9	0
bin	11	0
bin	11.1	0
bin	11.2	0
bin	11.3	0
bin	11.4	0
bin	11.5	0
bin	11.6	10
bin	11.7	4
bin	11.8	51
bin	11.9	0
bin	12	0
bin	12.1	0
bin	12.2	0
bin	12.3	0
bin	12.4	3
bin	12.5	2
bin	12.6	0
bin	12.7	0
bin	12.8	0
bin	12.9	1
bin	13	0
bin	13.1	0
bin	13.2	0
bin	13.3	0
bin	13.4	0
bin	13.5	0
bin	13.6	0
bin	13.7	0
bin	13.8	0
bin	13.9	0
bin	14	0
bin	14.1	0
bin	14.2	0
bin	14.3	0
bin	14.4	0
bin	14.5	0
bin	14.6	0
bin	14.7	0
bin	14.8	0
bin	14.9	0
bin	15	0
bin	15.1	0
bin	15.2	0
bin	15.3	0
bin	15.4	0
bin	15.5	0
bin	15.6	0
bin	15.7	1
bin	15.8	0
bin	15.9	0
bin	16	0
bin	16.1	0
bin	16.2	0
bin	16.3	0
bin	16.4	0
bin	16.5	0
bin	16.6	0
bin	16.7	0
bin	16.8	0
bin	16.9	0
bin	17	0
bin	17.1	0
bin	17.2	0
bin	17.3	0
statistic Delegate_selection_on_HotStuff_2.Creator[996] throughput
field count 10
field mean 332
field stddev 37.947331922021
field min 240
field max 360
field sum 3320
field sqrsum 1115200
bin	-inf	0
bin	210	0
bin	212	0
bin	214	0
bin	216	0
bin	218	0
bin	220	0
bin	222	0
bin	224	0
bin	226	0
bin	228	0
bin	230	0
bin	232	0
bin	234	0
bin	236	0
bin	238	0
bin	240	1
bin	242	0
bin	244	0
bin	246	0
bin	248	0
bin	250	0
bin	252	0
bin	254	0
bin	256	0
bin	258	0
bin	260	0
bin	262	0
bin	264	0
bin	266	0
bin	268	0
bin	270	0
bin	272	0
bin	274	0
bin	276	0
bin	278	0
bin	280	0
bin	282	0
bin	284	0
bin	286	0
bin	288	0
bin	290	0
bin	292	0
bin	294	0
bin	296	0
bin	298	0
bin	300	0
bin	302	0
bin	304	0
bin	306	0
bin	308	0
bin	310	0
bin	312	0
bin	314	0
bin	316	0
bin	318	0
bin	320	4
bin	322	0
bin	324	0
bin	326	0
bin	328	0
bin	330	0
bin	332	0
bin	334	0
bin	336	0
bin	338	0
bin	340	0
bin	342	0
bin	344	0
bin	346	0
bin	348	0
bin	350	0
bin	352	0
bin	354	0
bin	356	0
bin	358	0
bin	360	5
bin	362	0
bin	364	0
bin	366	0
bin	368	0
bin	370	0
bin	372	0
bin	374	0
bin	376	0
bin	378	0
bin	380	0
bin	382	0
bin	384	0
bin	386	0
bin	388	0
bin	390	0
par Delegate_selection_on_HotStuff_2.Creator[997] typename "\"delegate_selection_on_hotstuff_2.Delegate_selection_on_HotStuff_2.Create\""
statistic Delegate_selection_on_HotStuff_2.Creator[997] "create time"
field count 83
field mean 11.65509997494
field stddev 0.82213434755417
field min 9.61729152
field max 15.78225536
field sum 967.37329792
field sqrsum 11330.25670095
bin	-inf	0
bin	8.2	0
bin	8.3	0
bin	8.4	0
bin	8.5	0
bin	8.6	0
bin	8.7	0
bin	8.8	0
bin	8.9	0
bin	9	0
bin	9.1	0
bin	9.2	0
bin	9.3	0
bin	9.4	0
bin	9.5	0
bin	9.6	1
bin	9.7	7
bin	9.8	0
bin	9.9	0
bin	10	0
bin	10.1	0
bin	10.2	0
bin	10.3	0
bin	10.4	0
bin	10.5	0
bin	10.6	3
bin	10.7	0
bin	10.8	0
bin	10.9	0
bin	11	0
bin	11.1	0
bin	11.2	0
bin	11.3	0
bin	11.4	0
bin	11.5	0
bin	11.6	10
bin	11.7	4
bin	11.8	51
bin	11.9	0
bin	12	0
bin	12.1	0
bin	12.2	0
bin	12.3	0
bin	12.4	3
bin	12.5	2
bin	12.6	0
bin	12.7	0
bin	12.8	0
bin	12.9	1
bin	13	0
bin	13.1	0
bin	13.2	0
bin	13.3	0
bin	13.4	0
bin	13.5	0
bin	13.6	0
bin	13.7	0
bin	13.8	0
bin	13.9	0
bin	14	0
bin	14.1	0
bin	14.2	0
bin	14.3	0
bin	14.4	0
bin	14.5	0
bin	14.6	0
bin	14.7	0
bin	14.8	0
bin	14.9	0
bin	15	0
bin	15.1	0
bin	15.2	0
bin	15.3	0
bin	15.4	0
bin	15.5	0
bin	15.6	0
bin	15.7	1
bin	15.8	0
bin	15.9	0
bin	16	0
bin	16.1	0
bin	16.2	0
bin	16.3	0
bin	16.4	0
bin	16.5	0
bin	16.6	0
bin	16.7	0
bin	16.8	0
bin	16.9	0
bin	17	0
bin	17.1	0
bin	17.2	0
bin	17.3	0
statistic Delegate_selection_on_HotStuff_2.Creator[997] throughput
field count 10
field mean 332
field stddev 37.947331922021
field min 240
field max 360
field sum 3320
field sqrsum 1115200
bin	-inf	0
bin	210	0
bin	212	0
bin	214	0
bin	216	0
bin	218	0
bin	220	0
bin	222	0
bin	224	0
bin	226	0
bin	228	0
bin	230	0
bin	232	0
bin	234	0
bin	236	0
bin	238	0
bin	240	1
bin	242	0
bin	244	0
bin	246	0
bin	248	0
bin	250	0
bin	252	0
bin	254	0
bin	256	0
bin	258	0
bin	260	0
bin	262	0
bin	264	0
bin	266	0
bin	268	0
bin	270	0
bin	272	0
bin	274	0
bin	276	0
bin	278	0
bin	280	0
bin	282	0
bin	284	0
bin	286	0
bin	288	0
bin	290	0
bin	292	0
bin	294	0
bin	296	0
bin	298	0
bin	300	0
bin	302	0
bin	304	0
bin	306	0
bin	308	0
bin	310	0
bin	312	0
bin	314	0
bin	316	0
bin	318	0
bin	320	4
bin	322	0
bin	324	0
bin	326	0
bin	328	0
bin	330	0
bin	332	0
bin	334	0
bin	336	0
bin	338	0
bin	340	0
bin	342	0
bin	344	0
bin	346	0
bin	348	0
bin	350	0
bin	352	0
bin	354	0
bin	356	0
bin	358	0
bin	360	5
bin	362	0
bin	364	0
bin	366	0
bin	368	0
bin	370	0
bin	372	0
bin	374	0
bin	376	0
bin	378	0
bin	380	0
bin	382	0
bin	384	0
bin	386	0
bin	388	0
bin	390	0
par Delegate_selection_on_HotStuff_2.Creator[998] typename "\"delegate_selection_on_hotstuff_2.Delegate_selection_on_HotStuff_2.Create\""
statistic Delegate_selection_on_HotStuff_2.Creator[998] "create time"
field count 83
field mean 11.669267523855
field stddev 0.81435251274277
field min 9.61729152
field max 15.78225536
field sum 968.54920448
field sqrsum 11356.639718325
bin	-inf	0
bin	8.2	0
bin	8.3	0
bin	8.4	0
bin	8.5	0
bin	8.6	0
bin	8.7	0
bin	8.8	0
bin	8.9	0
bin	9	0
bin	9.1	0
bin	9.2	0
bin	9.3	0
bin	9.4	0
bin	9.5	0
bin	9.6	1
bin	9.7	7
bin	9.8	0
bin	9.9	0
bin	10	0
bin	10.1	0
bin	10.2	0
bin	10.3	0
bin	10.4	0
bin	10.5	0
bin	10.6	2
bin	10.7	0
bin	10.8	0
bin	10.9	0
bin	11	0
bin	11.1	0
bin	11.2	0
bin	11.3	0
bin	11.4	0
bin	11.5	0
bin	11.6	10
bin	11.7	4
bin	11.8	52
bin	11.9	0
bin	12	0
bin	12.1	0
bin	12.2	0
bin	12.3	0
bin	12.4	3
bin	12.5	2
bin	12.6	0
bin	12.7	0
bin	12.8	0
bin	12.9	1
bin	13	0
bin	13.1	0
bin	13.2	0
bin	13.3	0
bin	13.4	0
bin	13.5	0
bin	13.6	0
bin	13.7	0
bin	13.8	0
bin	13.9	0
bin	14	0
bin	14.1	0
bin	14.2	0
bin	14.3	0
bin	14.4	0
bin	14.5	0
bin	14.6	0
bin	14.7	0
bin	14.8	0
bin	14.9	0
bin	15	0
bin	15.1	0
bin	15.2	0
bin	15.3	0
bin	15.4	0
bin	15.5	0
bin	15.6	0
bin	15.7	1
bin	15.8	0
bin	15.9	0
bin	16	0
bin	16.1	0
bin	16.2	0
bin	16.3	0
bin	16.4	0
bin	16.5	0
bin	16.6	0
bin	16.7	0
bin	16.8	0
bin	16.9	0
bin	17	0
bin	17.1	0
bin	17.2	0
bin	17.3	0
statistic Delegate_selection_on_HotStuff_2.Creator[998] throughput
field count 10
field mean 332
field stddev 37.947331922021
field min 240
field max 360
field sum 3320
field sqrsum 1115200
bin	-inf	0
bin	210	0
bin	212	0
bin	214	0
bin	216	0
bin	218	0
bin	220	0
bin	222	0
bin	224	0
bin	226	0
bin	228	0
bin	230	0
bin	232	0
bin	234	0
bin	236	0
bin	238	0
bin	240	1
bin	242	0
bin	244	0
bin	246	0
bin	248	0
bin	250	0
bin	252	0
bin	254	0
bin	256	0
bin	258	0
bin	260	0
bin	262	0
bin	264	0
bin	266	0
bin	268	0
bin	270	0
bin	272	0
bin	274	0
bin	276	0
bin	278	0
bin	280	0
bin	282	0
bin	284	0
bin	286	0
bin	288	0
bin	290	0
bin	292	0
bin	294	0
bin	296	0
bin	298	0
bin	300	0
bin	302	0
bin	304	0
bin	306	0
bin	308	0
bin	310	0
bin	312	0
bin	314	0
bin	316	0
bin	318	0
bin	320	4
bin	322	0
bin	324	0
bin	326	0
bin	328	0
bin	330	0
bin	332	0
bin	334	0
bin	336	0
bin	338	0
bin	340	0
bin	342	0
bin	344	0
bin	346	0
bin	348	0
bin	350	0
bin	352	0
bin	354	0
bin	356	0
bin	358	0
bin	360	5
bin	362	0
bin	364	0
bin	366	0
bin	368	0
bin	370	0
bin	372	0
bin	374	0
bin	376	0
bin	378	0
bin	380	0
bin	382	0
bin	384	0
bin	386	0
bin	388	0
bin	390	0
par Delegate_selection_on_HotStuff_2.Creator[999] typename "\"delegate_selection_on_hotstuff_2.Delegate_selection_on_HotStuff_2.Create\""
statistic Delegate_selection_on_HotStuff_2.Creator[999] "create time"
field count 83
field mean 11.669267523855
field stddev 0.83930726876907
field min 9.01708672
field max 15.78225536
field sum 968.54920448
field sqrsum 11360.02358579
bin	-inf	0
bin	8.2	0
bin	8.3	0
bin	8.4	0
bin	8.5	0
bin	8.6	0
bin	8.7	0
bin	8.8	0
bin	8.9	0
bin	9	1
bin	9.1	0
bin	9.2	0
bin	9.3	0
bin	9.4	0
bin	9.5	0
bin	9.6	0
bin	9.7	7
bin	9.8	0
bin	9.9	0
bin	10	0
bin	10.1	0
bin	10.2	0
bin	10.3	0
bin	10.4	0
bin	10.5	0
bin	10.6	2
bin	10.7	0
bin	10.8	0
bin	10.9	0
bin	11	0
bin	11.1	0
bin	11.2	0
bin	11.3	0
bin	11.4	0
bin	11.5	0
bin	11.6	10
bin	11.7	4
bin	11.8	51
bin	11.9	0
bin	12	0
bin	12.1	0
bin	12.2	0
bin	12.3	0
bin	12.4	4
bin	12.5	2
bin	12.6	0
bin	12.7	0
bin	12.8	0
bin	12.9	1
bin	13	0
bin	13.1	0
bin	13.2	0
bin	13.3	0
bin	13.4	0
bin	13.5	0
bin	13.6	0
bin	13.7	0
bin	13.8	0
bin	13.9	0
bin	14	0
bin	14.1	0
bin	14.2	0
bin	14.3	0
bin	14.4	0
bin	14.5	0
bin	14.6	0
bin	14.7	0
bin	14.8	0
bin	14.9	0
bin	15	0
bin	15.1	0
bin	15.2	0
bin	15.3	0
bin	15.4	0
bin	15.5	0
bin	15.6	0
bin	15.7	1
bin	15.8	0
bin	15.9	0
bin	16	0
bin	16.1	0
bin	16.2	0
bin	16.3	0
bin	16.4	0
bin	16.5	0
bin	16.6	0
bin	16.7	0
bin	16.8	0
bin	16.9	0
bin	17	0
bin	17.1	0
bin	17.2	0
bin	17.3	0
statistic Delegate_selection_on_HotStuff_2.Creator[999] throughput
field count 10
field mean 332
field stddev 37.947331922021
field min 240
field max 360
field sum 3320
field sqrsum 1115200
bin	-inf	0
bin	210	0
bin	212	0
bin	214	0
bin	216	0
bin	218	0
bin	220	0
bin	222	0
bin	224	0
bin	226	0
bin	228	0
bin	230	0
bin	232	0
bin	234	0
bin	236	0
bin	238	0
bin	240	1
bin	242	0
bin	244	0
bin	246	0
bin	248	0
bin	250	0
bin	252	0
bin	254	0
bin	256	0
bin	258	0
bin	260	0
bin	262	0
bin	264	0
bin	266	0
bin	268	0
bin	270	0
bin	272	0
bin	274	0
bin	276	0
bin	278	0
bin	280	0
bin	282	0
bin	284	0
bin	286	0
bin	288	0
bin	290	0
bin	292	0
bin	294	0
bin	296	0
bin	298	0
bin	300	0
bin	302	0
bin	304	0
bin	306	0
bin	308	0
bin	310	0
bin	312	0
bin	314	0
bin	316	0
bin	318	0
bin	320	4
bin	322	0
bin	324	0
bin	326	0
bin	328	0
bin	330	0
bin	332	0
bin	334	0
bin	336	0
bin	338	0
bin	340	0
bin	342	0
bin	344	0
bin	346	0
bin	348	0
bin	350	0
bin	352	0
bin	354	0
bin	356	0
bin	358	0
bin	360	5
bin	362	0
bin	364	0
bin	366	0
bin	368	0
bin	370	0
bin	372	0
bin	374	0
bin	376	0
bin	378	0
bin	380	0
bin	382	0
bin	384	0
bin	386	0
bin	388	0
bin	390	0
par Delegate_selection_on_HotStuff_2.Concentrator[0] typename "\"delegate_selection_on_hotstuff_2.Delegate_selection_on_HotStuff_2.Concentrate\""
par Delegate_selection_on_HotStuff_2.Concentrator[1] typename "\"delegate_selection_on_hotstuff_2.Delegate_selection_on_HotStuff_2.Concentrate\""
par Delegate_selection_on_HotStuff_2.Concentrator[2] typename "\"delegate_selection_on_hotstuff_2.Delegate_selection_on_HotStuff_2.Concentrate\""
par Delegate_selection_on_HotStuff_2.Concentrator[3] typename "\"delegate_selection_on_hotstuff_2.Delegate_selection_on_HotStuff_2.Concentrate\""
par Delegate_selection_on_HotStuff_2.Concentrator[4] typename "\"delegate_selection_on_hotstuff_2.Delegate_selection_on_HotStuff_2.Concentrate\""
par Delegate_selection_on_HotStuff_2.Concentrator[5] typename "\"delegate_selection_on_hotstuff_2.Delegate_selection_on_HotStuff_2.Concentrate\""
par Delegate_selection_on_HotStuff_2.Concentrator[6] typename "\"delegate_selection_on_hotstuff_2.Delegate_selection_on_HotStuff_2.Concentrate\""
par Delegate_selection_on_HotStuff_2.Concentrator[7] typename "\"delegate_selection_on_hotstuff_2.Delegate_selection_on_HotStuff_2.Concentrate\""
par Delegate_selection_on_HotStuff_2.Concentrator[8] typename "\"delegate_selection_on_hotstuff_2.Delegate_selection_on_HotStuff_2.Concentrate\""
par Delegate_selection_on_HotStuff_2.Concentrator[9] typename "\"delegate_selection_on_hotstuff_2.Delegate_selection_on_HotStuff_2.Concentrate\""
par Delegate_selection_on_HotStuff_2 typename "\"delegate_selection_on_hotstuff_2.Delegate_selection_on_HotStuff_2\""
par Delegate_selection_on_HotStuff_2 createNum 1000
par Delegate_selection_on_HotStuff_2 concNum 10

